*SPEF "ieee 1481-1999"
*DESIGN "user_project_wrapper"
*DATE "11:11:11 Fri 11 11, 1111"
*VENDOR "OpenRCX"
*PROGRAM "Parallel Extraction"
*VERSION "1.0"
*DESIGN_FLOW "NAME_SCOPE LOCAL" "PIN_CAP NONE"
*DIVIDER /
*DELIMITER :
*BUS_DELIMITER []
*T_UNIT 1 NS
*C_UNIT 1 PF
*R_UNIT 1 OHM
*L_UNIT 1 HENRY

*NAME_MAP
*1 io_in[0]
*2 io_in[10]
*3 io_in[11]
*4 io_in[12]
*5 io_in[13]
*6 io_in[14]
*7 io_in[15]
*8 io_in[16]
*9 io_in[17]
*10 io_in[18]
*11 io_in[19]
*12 io_in[1]
*13 io_in[20]
*14 io_in[21]
*15 io_in[22]
*16 io_in[23]
*17 io_in[24]
*18 io_in[25]
*19 io_in[26]
*20 io_in[27]
*21 io_in[28]
*22 io_in[29]
*23 io_in[2]
*24 io_in[30]
*25 io_in[31]
*26 io_in[32]
*27 io_in[33]
*28 io_in[34]
*29 io_in[35]
*30 io_in[36]
*31 io_in[37]
*32 io_in[3]
*33 io_in[4]
*34 io_in[5]
*35 io_in[6]
*36 io_in[7]
*37 io_in[8]
*38 io_in[9]
*39 io_oeb[0]
*40 io_oeb[10]
*41 io_oeb[11]
*42 io_oeb[12]
*43 io_oeb[13]
*44 io_oeb[14]
*45 io_oeb[15]
*46 io_oeb[16]
*47 io_oeb[17]
*48 io_oeb[18]
*49 io_oeb[19]
*50 io_oeb[1]
*51 io_oeb[20]
*52 io_oeb[21]
*53 io_oeb[22]
*54 io_oeb[23]
*55 io_oeb[24]
*56 io_oeb[25]
*57 io_oeb[26]
*58 io_oeb[27]
*59 io_oeb[28]
*60 io_oeb[29]
*61 io_oeb[2]
*62 io_oeb[30]
*63 io_oeb[31]
*64 io_oeb[32]
*65 io_oeb[33]
*66 io_oeb[34]
*67 io_oeb[35]
*68 io_oeb[36]
*69 io_oeb[37]
*70 io_oeb[3]
*71 io_oeb[4]
*72 io_oeb[5]
*73 io_oeb[6]
*74 io_oeb[7]
*75 io_oeb[8]
*76 io_oeb[9]
*77 io_out[0]
*78 io_out[10]
*79 io_out[11]
*80 io_out[12]
*81 io_out[13]
*82 io_out[14]
*83 io_out[15]
*84 io_out[16]
*85 io_out[17]
*86 io_out[18]
*87 io_out[19]
*88 io_out[1]
*89 io_out[20]
*90 io_out[21]
*91 io_out[22]
*92 io_out[23]
*93 io_out[24]
*94 io_out[25]
*95 io_out[26]
*96 io_out[27]
*97 io_out[28]
*98 io_out[29]
*99 io_out[2]
*100 io_out[30]
*101 io_out[31]
*102 io_out[32]
*103 io_out[33]
*104 io_out[34]
*105 io_out[35]
*106 io_out[36]
*107 io_out[37]
*108 io_out[3]
*109 io_out[4]
*110 io_out[5]
*111 io_out[6]
*112 io_out[7]
*113 io_out[8]
*114 io_out[9]
*115 la_data_in[0]
*116 la_data_in[10]
*117 la_data_in[11]
*118 la_data_in[12]
*119 la_data_in[13]
*120 la_data_in[14]
*121 la_data_in[15]
*122 la_data_in[16]
*123 la_data_in[17]
*124 la_data_in[18]
*125 la_data_in[19]
*126 la_data_in[1]
*127 la_data_in[20]
*128 la_data_in[21]
*129 la_data_in[22]
*130 la_data_in[23]
*131 la_data_in[24]
*132 la_data_in[25]
*133 la_data_in[26]
*134 la_data_in[27]
*135 la_data_in[28]
*136 la_data_in[29]
*137 la_data_in[2]
*138 la_data_in[30]
*139 la_data_in[31]
*140 la_data_in[32]
*141 la_data_in[33]
*142 la_data_in[34]
*143 la_data_in[35]
*144 la_data_in[36]
*145 la_data_in[37]
*146 la_data_in[38]
*147 la_data_in[39]
*148 la_data_in[3]
*149 la_data_in[40]
*150 la_data_in[41]
*151 la_data_in[42]
*152 la_data_in[43]
*153 la_data_in[44]
*154 la_data_in[45]
*155 la_data_in[46]
*156 la_data_in[47]
*157 la_data_in[48]
*158 la_data_in[49]
*159 la_data_in[4]
*160 la_data_in[50]
*161 la_data_in[51]
*162 la_data_in[52]
*163 la_data_in[53]
*164 la_data_in[54]
*165 la_data_in[55]
*166 la_data_in[56]
*167 la_data_in[57]
*168 la_data_in[58]
*169 la_data_in[59]
*170 la_data_in[5]
*171 la_data_in[60]
*172 la_data_in[61]
*173 la_data_in[62]
*174 la_data_in[63]
*175 la_data_in[6]
*176 la_data_in[7]
*177 la_data_in[8]
*178 la_data_in[9]
*179 la_data_out[0]
*180 la_data_out[10]
*181 la_data_out[11]
*182 la_data_out[12]
*183 la_data_out[13]
*184 la_data_out[14]
*185 la_data_out[15]
*186 la_data_out[16]
*187 la_data_out[17]
*188 la_data_out[18]
*189 la_data_out[19]
*190 la_data_out[1]
*191 la_data_out[20]
*192 la_data_out[21]
*193 la_data_out[22]
*194 la_data_out[23]
*195 la_data_out[24]
*196 la_data_out[25]
*197 la_data_out[26]
*198 la_data_out[27]
*199 la_data_out[28]
*200 la_data_out[29]
*201 la_data_out[2]
*202 la_data_out[30]
*203 la_data_out[31]
*204 la_data_out[32]
*205 la_data_out[33]
*206 la_data_out[34]
*207 la_data_out[35]
*208 la_data_out[36]
*209 la_data_out[37]
*210 la_data_out[38]
*211 la_data_out[39]
*212 la_data_out[3]
*213 la_data_out[40]
*214 la_data_out[41]
*215 la_data_out[42]
*216 la_data_out[43]
*217 la_data_out[44]
*218 la_data_out[45]
*219 la_data_out[46]
*220 la_data_out[47]
*221 la_data_out[48]
*222 la_data_out[49]
*223 la_data_out[4]
*224 la_data_out[50]
*225 la_data_out[51]
*226 la_data_out[52]
*227 la_data_out[53]
*228 la_data_out[54]
*229 la_data_out[55]
*230 la_data_out[56]
*231 la_data_out[57]
*232 la_data_out[58]
*233 la_data_out[59]
*234 la_data_out[5]
*235 la_data_out[60]
*236 la_data_out[61]
*237 la_data_out[62]
*238 la_data_out[63]
*239 la_data_out[6]
*240 la_data_out[7]
*241 la_data_out[8]
*242 la_data_out[9]
*243 la_oenb[0]
*244 la_oenb[10]
*245 la_oenb[11]
*246 la_oenb[12]
*247 la_oenb[13]
*248 la_oenb[14]
*249 la_oenb[15]
*250 la_oenb[16]
*251 la_oenb[17]
*252 la_oenb[18]
*253 la_oenb[19]
*254 la_oenb[1]
*255 la_oenb[20]
*256 la_oenb[21]
*257 la_oenb[22]
*258 la_oenb[23]
*259 la_oenb[24]
*260 la_oenb[25]
*261 la_oenb[26]
*262 la_oenb[27]
*263 la_oenb[28]
*264 la_oenb[29]
*265 la_oenb[2]
*266 la_oenb[30]
*267 la_oenb[31]
*268 la_oenb[32]
*269 la_oenb[33]
*270 la_oenb[34]
*271 la_oenb[35]
*272 la_oenb[36]
*273 la_oenb[37]
*274 la_oenb[38]
*275 la_oenb[39]
*276 la_oenb[3]
*277 la_oenb[40]
*278 la_oenb[41]
*279 la_oenb[42]
*280 la_oenb[43]
*281 la_oenb[44]
*282 la_oenb[45]
*283 la_oenb[46]
*284 la_oenb[47]
*285 la_oenb[48]
*286 la_oenb[49]
*287 la_oenb[4]
*288 la_oenb[50]
*289 la_oenb[51]
*290 la_oenb[52]
*291 la_oenb[53]
*292 la_oenb[54]
*293 la_oenb[55]
*294 la_oenb[56]
*295 la_oenb[57]
*296 la_oenb[58]
*297 la_oenb[59]
*298 la_oenb[5]
*299 la_oenb[60]
*300 la_oenb[61]
*301 la_oenb[62]
*302 la_oenb[63]
*303 la_oenb[6]
*304 la_oenb[7]
*305 la_oenb[8]
*306 la_oenb[9]
*307 user_clock2
*308 user_irq[0]
*309 user_irq[1]
*310 user_irq[2]
*313 wb_clk_i
*314 wb_rst_i
*315 wbs_ack_o
*316 wbs_adr_i[0]
*317 wbs_adr_i[10]
*318 wbs_adr_i[11]
*319 wbs_adr_i[12]
*320 wbs_adr_i[13]
*321 wbs_adr_i[14]
*322 wbs_adr_i[15]
*323 wbs_adr_i[16]
*324 wbs_adr_i[17]
*325 wbs_adr_i[18]
*326 wbs_adr_i[19]
*327 wbs_adr_i[1]
*328 wbs_adr_i[20]
*329 wbs_adr_i[21]
*330 wbs_adr_i[22]
*331 wbs_adr_i[23]
*332 wbs_adr_i[24]
*333 wbs_adr_i[25]
*334 wbs_adr_i[26]
*335 wbs_adr_i[27]
*336 wbs_adr_i[28]
*337 wbs_adr_i[29]
*338 wbs_adr_i[2]
*339 wbs_adr_i[30]
*340 wbs_adr_i[31]
*341 wbs_adr_i[3]
*342 wbs_adr_i[4]
*343 wbs_adr_i[5]
*344 wbs_adr_i[6]
*345 wbs_adr_i[7]
*346 wbs_adr_i[8]
*347 wbs_adr_i[9]
*348 wbs_cyc_i
*349 wbs_dat_i[0]
*350 wbs_dat_i[10]
*351 wbs_dat_i[11]
*352 wbs_dat_i[12]
*353 wbs_dat_i[13]
*354 wbs_dat_i[14]
*355 wbs_dat_i[15]
*356 wbs_dat_i[16]
*357 wbs_dat_i[17]
*358 wbs_dat_i[18]
*359 wbs_dat_i[19]
*360 wbs_dat_i[1]
*361 wbs_dat_i[20]
*362 wbs_dat_i[21]
*363 wbs_dat_i[22]
*364 wbs_dat_i[23]
*365 wbs_dat_i[24]
*366 wbs_dat_i[25]
*367 wbs_dat_i[26]
*368 wbs_dat_i[27]
*369 wbs_dat_i[28]
*370 wbs_dat_i[29]
*371 wbs_dat_i[2]
*372 wbs_dat_i[30]
*373 wbs_dat_i[31]
*374 wbs_dat_i[3]
*375 wbs_dat_i[4]
*376 wbs_dat_i[5]
*377 wbs_dat_i[6]
*378 wbs_dat_i[7]
*379 wbs_dat_i[8]
*380 wbs_dat_i[9]
*381 wbs_dat_o[0]
*382 wbs_dat_o[10]
*383 wbs_dat_o[11]
*384 wbs_dat_o[12]
*385 wbs_dat_o[13]
*386 wbs_dat_o[14]
*387 wbs_dat_o[15]
*388 wbs_dat_o[16]
*389 wbs_dat_o[17]
*390 wbs_dat_o[18]
*391 wbs_dat_o[19]
*392 wbs_dat_o[1]
*393 wbs_dat_o[20]
*394 wbs_dat_o[21]
*395 wbs_dat_o[22]
*396 wbs_dat_o[23]
*397 wbs_dat_o[24]
*398 wbs_dat_o[25]
*399 wbs_dat_o[26]
*400 wbs_dat_o[27]
*401 wbs_dat_o[28]
*402 wbs_dat_o[29]
*403 wbs_dat_o[2]
*404 wbs_dat_o[30]
*405 wbs_dat_o[31]
*406 wbs_dat_o[3]
*407 wbs_dat_o[4]
*408 wbs_dat_o[5]
*409 wbs_dat_o[6]
*410 wbs_dat_o[7]
*411 wbs_dat_o[8]
*412 wbs_dat_o[9]
*413 wbs_sel_i[0]
*414 wbs_sel_i[1]
*415 wbs_sel_i[2]
*416 wbs_sel_i[3]
*417 wbs_stb_i
*418 wbs_we_i
*419 _00_
*420 _01_
*421 _02_
*422 _03_
*423 _04_
*424 _05_
*425 _06_
*426 _07_
*427 _08_
*428 _09_
*429 _10_
*430 _11_
*431 _12_
*432 _13_
*433 _14_
*434 _15_
*435 _16_
*436 _17_
*437 cntr_example_1

*PORTS
io_in[0] I
io_in[10] I
io_in[11] I
io_in[12] I
io_in[13] I
io_in[14] I
io_in[15] I
io_in[16] I
io_in[17] I
io_in[18] I
io_in[19] I
io_in[1] I
io_in[20] I
io_in[21] I
io_in[22] I
io_in[23] I
io_in[24] I
io_in[25] I
io_in[26] I
io_in[27] I
io_in[28] I
io_in[29] I
io_in[2] I
io_in[30] I
io_in[31] I
io_in[32] I
io_in[33] I
io_in[34] I
io_in[35] I
io_in[36] I
io_in[37] I
io_in[3] I
io_in[4] I
io_in[5] I
io_in[6] I
io_in[7] I
io_in[8] I
io_in[9] I
io_oeb[0] O
io_oeb[10] O
io_oeb[11] O
io_oeb[12] O
io_oeb[13] O
io_oeb[14] O
io_oeb[15] O
io_oeb[16] O
io_oeb[17] O
io_oeb[18] O
io_oeb[19] O
io_oeb[1] O
io_oeb[20] O
io_oeb[21] O
io_oeb[22] O
io_oeb[23] O
io_oeb[24] O
io_oeb[25] O
io_oeb[26] O
io_oeb[27] O
io_oeb[28] O
io_oeb[29] O
io_oeb[2] O
io_oeb[30] O
io_oeb[31] O
io_oeb[32] O
io_oeb[33] O
io_oeb[34] O
io_oeb[35] O
io_oeb[36] O
io_oeb[37] O
io_oeb[3] O
io_oeb[4] O
io_oeb[5] O
io_oeb[6] O
io_oeb[7] O
io_oeb[8] O
io_oeb[9] O
io_out[0] O
io_out[10] O
io_out[11] O
io_out[12] O
io_out[13] O
io_out[14] O
io_out[15] O
io_out[16] O
io_out[17] O
io_out[18] O
io_out[19] O
io_out[1] O
io_out[20] O
io_out[21] O
io_out[22] O
io_out[23] O
io_out[24] O
io_out[25] O
io_out[26] O
io_out[27] O
io_out[28] O
io_out[29] O
io_out[2] O
io_out[30] O
io_out[31] O
io_out[32] O
io_out[33] O
io_out[34] O
io_out[35] O
io_out[36] O
io_out[37] O
io_out[3] O
io_out[4] O
io_out[5] O
io_out[6] O
io_out[7] O
io_out[8] O
io_out[9] O
la_data_in[0] I
la_data_in[10] I
la_data_in[11] I
la_data_in[12] I
la_data_in[13] I
la_data_in[14] I
la_data_in[15] I
la_data_in[16] I
la_data_in[17] I
la_data_in[18] I
la_data_in[19] I
la_data_in[1] I
la_data_in[20] I
la_data_in[21] I
la_data_in[22] I
la_data_in[23] I
la_data_in[24] I
la_data_in[25] I
la_data_in[26] I
la_data_in[27] I
la_data_in[28] I
la_data_in[29] I
la_data_in[2] I
la_data_in[30] I
la_data_in[31] I
la_data_in[32] I
la_data_in[33] I
la_data_in[34] I
la_data_in[35] I
la_data_in[36] I
la_data_in[37] I
la_data_in[38] I
la_data_in[39] I
la_data_in[3] I
la_data_in[40] I
la_data_in[41] I
la_data_in[42] I
la_data_in[43] I
la_data_in[44] I
la_data_in[45] I
la_data_in[46] I
la_data_in[47] I
la_data_in[48] I
la_data_in[49] I
la_data_in[4] I
la_data_in[50] I
la_data_in[51] I
la_data_in[52] I
la_data_in[53] I
la_data_in[54] I
la_data_in[55] I
la_data_in[56] I
la_data_in[57] I
la_data_in[58] I
la_data_in[59] I
la_data_in[5] I
la_data_in[60] I
la_data_in[61] I
la_data_in[62] I
la_data_in[63] I
la_data_in[6] I
la_data_in[7] I
la_data_in[8] I
la_data_in[9] I
la_data_out[0] O
la_data_out[10] O
la_data_out[11] O
la_data_out[12] O
la_data_out[13] O
la_data_out[14] O
la_data_out[15] O
la_data_out[16] O
la_data_out[17] O
la_data_out[18] O
la_data_out[19] O
la_data_out[1] O
la_data_out[20] O
la_data_out[21] O
la_data_out[22] O
la_data_out[23] O
la_data_out[24] O
la_data_out[25] O
la_data_out[26] O
la_data_out[27] O
la_data_out[28] O
la_data_out[29] O
la_data_out[2] O
la_data_out[30] O
la_data_out[31] O
la_data_out[32] O
la_data_out[33] O
la_data_out[34] O
la_data_out[35] O
la_data_out[36] O
la_data_out[37] O
la_data_out[38] O
la_data_out[39] O
la_data_out[3] O
la_data_out[40] O
la_data_out[41] O
la_data_out[42] O
la_data_out[43] O
la_data_out[44] O
la_data_out[45] O
la_data_out[46] O
la_data_out[47] O
la_data_out[48] O
la_data_out[49] O
la_data_out[4] O
la_data_out[50] O
la_data_out[51] O
la_data_out[52] O
la_data_out[53] O
la_data_out[54] O
la_data_out[55] O
la_data_out[56] O
la_data_out[57] O
la_data_out[58] O
la_data_out[59] O
la_data_out[5] O
la_data_out[60] O
la_data_out[61] O
la_data_out[62] O
la_data_out[63] O
la_data_out[6] O
la_data_out[7] O
la_data_out[8] O
la_data_out[9] O
la_oenb[0] I
la_oenb[10] I
la_oenb[11] I
la_oenb[12] I
la_oenb[13] I
la_oenb[14] I
la_oenb[15] I
la_oenb[16] I
la_oenb[17] I
la_oenb[18] I
la_oenb[19] I
la_oenb[1] I
la_oenb[20] I
la_oenb[21] I
la_oenb[22] I
la_oenb[23] I
la_oenb[24] I
la_oenb[25] I
la_oenb[26] I
la_oenb[27] I
la_oenb[28] I
la_oenb[29] I
la_oenb[2] I
la_oenb[30] I
la_oenb[31] I
la_oenb[32] I
la_oenb[33] I
la_oenb[34] I
la_oenb[35] I
la_oenb[36] I
la_oenb[37] I
la_oenb[38] I
la_oenb[39] I
la_oenb[3] I
la_oenb[40] I
la_oenb[41] I
la_oenb[42] I
la_oenb[43] I
la_oenb[44] I
la_oenb[45] I
la_oenb[46] I
la_oenb[47] I
la_oenb[48] I
la_oenb[49] I
la_oenb[4] I
la_oenb[50] I
la_oenb[51] I
la_oenb[52] I
la_oenb[53] I
la_oenb[54] I
la_oenb[55] I
la_oenb[56] I
la_oenb[57] I
la_oenb[58] I
la_oenb[59] I
la_oenb[5] I
la_oenb[60] I
la_oenb[61] I
la_oenb[62] I
la_oenb[63] I
la_oenb[6] I
la_oenb[7] I
la_oenb[8] I
la_oenb[9] I
user_clock2 I
user_irq[0] O
user_irq[1] O
user_irq[2] O
wb_clk_i I
wb_rst_i I
wbs_ack_o O
wbs_adr_i[0] I
wbs_adr_i[10] I
wbs_adr_i[11] I
wbs_adr_i[12] I
wbs_adr_i[13] I
wbs_adr_i[14] I
wbs_adr_i[15] I
wbs_adr_i[16] I
wbs_adr_i[17] I
wbs_adr_i[18] I
wbs_adr_i[19] I
wbs_adr_i[1] I
wbs_adr_i[20] I
wbs_adr_i[21] I
wbs_adr_i[22] I
wbs_adr_i[23] I
wbs_adr_i[24] I
wbs_adr_i[25] I
wbs_adr_i[26] I
wbs_adr_i[27] I
wbs_adr_i[28] I
wbs_adr_i[29] I
wbs_adr_i[2] I
wbs_adr_i[30] I
wbs_adr_i[31] I
wbs_adr_i[3] I
wbs_adr_i[4] I
wbs_adr_i[5] I
wbs_adr_i[6] I
wbs_adr_i[7] I
wbs_adr_i[8] I
wbs_adr_i[9] I
wbs_cyc_i I
wbs_dat_i[0] I
wbs_dat_i[10] I
wbs_dat_i[11] I
wbs_dat_i[12] I
wbs_dat_i[13] I
wbs_dat_i[14] I
wbs_dat_i[15] I
wbs_dat_i[16] I
wbs_dat_i[17] I
wbs_dat_i[18] I
wbs_dat_i[19] I
wbs_dat_i[1] I
wbs_dat_i[20] I
wbs_dat_i[21] I
wbs_dat_i[22] I
wbs_dat_i[23] I
wbs_dat_i[24] I
wbs_dat_i[25] I
wbs_dat_i[26] I
wbs_dat_i[27] I
wbs_dat_i[28] I
wbs_dat_i[29] I
wbs_dat_i[2] I
wbs_dat_i[30] I
wbs_dat_i[31] I
wbs_dat_i[3] I
wbs_dat_i[4] I
wbs_dat_i[5] I
wbs_dat_i[6] I
wbs_dat_i[7] I
wbs_dat_i[8] I
wbs_dat_i[9] I
wbs_dat_o[0] O
wbs_dat_o[10] O
wbs_dat_o[11] O
wbs_dat_o[12] O
wbs_dat_o[13] O
wbs_dat_o[14] O
wbs_dat_o[15] O
wbs_dat_o[16] O
wbs_dat_o[17] O
wbs_dat_o[18] O
wbs_dat_o[19] O
wbs_dat_o[1] O
wbs_dat_o[20] O
wbs_dat_o[21] O
wbs_dat_o[22] O
wbs_dat_o[23] O
wbs_dat_o[24] O
wbs_dat_o[25] O
wbs_dat_o[26] O
wbs_dat_o[27] O
wbs_dat_o[28] O
wbs_dat_o[29] O
wbs_dat_o[2] O
wbs_dat_o[30] O
wbs_dat_o[31] O
wbs_dat_o[3] O
wbs_dat_o[4] O
wbs_dat_o[5] O
wbs_dat_o[6] O
wbs_dat_o[7] O
wbs_dat_o[8] O
wbs_dat_o[9] O
wbs_sel_i[0] I
wbs_sel_i[1] I
wbs_sel_i[2] I
wbs_sel_i[3] I
wbs_stb_i I
wbs_we_i I

*D_NET *77 0.51502
*CONN
*P io_out[0] O
*I *437:io_out[0] O *D cntr_example
*CAP
1 io_out[0] 0.00100991
2 *437:io_out[0] 0.000328807
3 *77:12 0.108783
4 *77:11 0.107773
5 *77:9 0.0528558
6 *77:8 0.0531846
7 *77:9 *78:9 0.00439294
8 *77:9 *88:9 0.186692
*RES
1 *437:io_out[0] *77:8 16.29 
2 *77:8 *77:9 652.05 
3 *77:9 *77:11 4.5 
4 *77:11 *77:12 831.15 
5 *77:12 io_out[0] 12.825 
*END

*D_NET *78 0.286756
*CONN
*P io_out[10] O
*I *437:io_out[10] O *D cntr_example
*CAP
1 io_out[10] 0.0015262
2 *437:io_out[10] 0.000371082
3 *78:15 0.0199633
4 *78:14 0.0184371
5 *78:12 0.0253091
6 *78:11 0.0253091
7 *78:9 0.0248597
8 *78:8 0.0252308
9 *78:9 *88:9 0.141357
10 *77:9 *78:9 0.00439294
*RES
1 *437:io_out[10] *78:8 16.29 
2 *78:8 *78:9 377.55 
3 *78:9 *78:11 4.5 
4 *78:11 *78:12 194.85 
5 *78:12 *78:14 4.5 
6 *78:14 *78:15 144.54 
7 *78:15 io_out[10] 12.645 
*END

*D_NET *79 0.349065
*CONN
*P io_out[11] O
*I *437:io_out[11] O *D cntr_example
*CAP
1 io_out[11] 0.000253458
2 *437:io_out[11] 0
3 *79:11 0.0244278
4 *79:10 0.0241743
5 *79:8 0.0176212
6 *79:7 0.0176212
7 *79:5 0.00210592
8 *79:4 0.00210592
9 *79:5 *80:5 0.127901
10 *79:5 *112:5 0.132854
*RES
1 *437:io_out[11] *79:4 4.5 
2 *79:4 *79:5 332.55 
3 *79:5 *79:7 4.5 
4 *79:7 *79:8 135.45 
5 *79:8 *79:10 4.5 
6 *79:10 *79:11 189.27 
7 *79:11 io_out[11] 2.835 
*END

*D_NET *80 0.23784
*CONN
*P io_out[12] O
*I *437:io_out[12] O *D cntr_example
*CAP
1 io_out[12] 0.000155499
2 *437:io_out[12] 0
3 *80:11 0.0239843
4 *80:10 0.0238288
5 *80:8 0.00927255
6 *80:7 0.00927255
7 *80:5 0.0214606
8 *80:4 0.0214606
9 *80:5 *112:5 0.000503485
10 *79:5 *80:5 0.127901
*RES
1 *437:io_out[12] *80:4 4.5 
2 *80:4 *80:5 322.65 
3 *80:5 *80:7 4.5 
4 *80:7 *80:8 70.83 
5 *80:8 *80:10 4.5 
6 *80:10 *80:11 186.57 
7 *80:11 io_out[12] 1.755 
*END

*D_NET *81 0.219315
*CONN
*P io_out[13] O
*I *437:io_out[13] O *D cntr_example
*CAP
1 io_out[13] 0.000345078
2 *437:io_out[13] 0.000616029
3 *81:20 0.0238727
4 *81:19 0.0251387
5 *81:14 0.0223453
6 *81:13 0.0213503
7 *81:14 *110:10 0.125647
*RES
1 *437:io_out[13] *81:13 8.955 
2 *81:13 *81:14 314.55 
3 *81:14 *81:19 20.43 
4 *81:19 *81:20 183.87 
5 *81:20 io_out[13] 3.375 
*END

*D_NET *82 0.218334
*CONN
*P io_out[14] O
*I *437:io_out[14] O *D cntr_example
*CAP
1 io_out[14] 0.00100991
2 *437:io_out[14] 0.00167205
3 *82:19 0.00732676
4 *82:18 0.00631685
5 *82:16 0.0426069
6 *82:15 0.0442789
7 *82:15 *87:17 0.000409474
8 *82:15 *114:8 0.00198882
9 *82:16 *83:8 0.112724
*RES
1 *437:io_out[14] *82:15 28.215 
2 *82:15 *82:16 471.51 
3 *82:16 *82:18 4.5 
4 *82:18 *82:19 48.69 
5 *82:19 io_out[14] 12.825 
*END

*D_NET *83 0.208203
*CONN
*P io_out[15] O
*I *437:io_out[15] O *D cntr_example
*CAP
1 io_out[15] 0.00107486
2 *437:io_out[15] 0.00128642
3 *83:14 0.018409
4 *83:13 0.0173341
5 *83:11 0.00946146
6 *83:10 0.00946146
7 *83:8 0.0185826
8 *83:7 0.019869
9 *82:16 *83:8 0.112724
*RES
1 *437:io_out[15] *83:7 13.185 
2 *83:7 *83:8 282.15 
3 *83:8 *83:10 4.5 
4 *83:10 *83:11 72.81 
5 *83:11 *83:13 4.5 
6 *83:13 *83:14 136.17 
7 *83:14 io_out[15] 12.825 
*END

*D_NET *84 0.102294
*CONN
*P io_out[16] O
*I *437:io_out[16] O *D cntr_example
*CAP
1 io_out[16] 0.000201854
2 *437:io_out[16] 0.00261686
3 *84:23 0.0103806
4 *84:22 0.0101788
5 *84:20 0.0376995
6 *84:19 0.0403164
7 *84:19 *87:14 0.000900044
*RES
1 *437:io_out[16] *84:19 31.995 
2 *84:19 *84:20 294.75 
3 *84:20 *84:22 4.5 
4 *84:22 *84:23 78.57 
5 *84:23 io_out[16] 2.295 
*END

*D_NET *85 0.0889213
*CONN
*P io_out[17] O
*I *437:io_out[17] O *D cntr_example
*CAP
1 io_out[17] 0.00160871
2 *437:io_out[17] 0.000991343
3 *85:13 0.0109568
4 *85:12 0.00934812
5 *85:10 0.0128124
6 *85:9 0.0138038
7 *85:10 *86:8 0.0237738
8 *85:10 *87:14 0.0025596
9 *85:10 *114:8 0.0130667
*RES
1 *437:io_out[17] *85:9 11.295 
2 *85:9 *85:10 180.99 
3 *85:10 *85:12 4.5 
4 *85:12 *85:13 71.64 
5 *85:13 io_out[17] 12.645 
*END

*D_NET *86 0.0586723
*CONN
*P io_out[18] O
*I *437:io_out[18] O *D cntr_example
*CAP
1 io_out[18] 0.000308285
2 *437:io_out[18] 0.000903903
3 *86:11 0.0112134
4 *86:10 0.0109051
5 *86:8 0.00320397
6 *86:7 0.00410788
7 *86:8 *87:14 0.00425595
8 *85:10 *86:8 0.0237738
*RES
1 *437:io_out[18] *86:7 10.485 
2 *86:7 *86:8 59.49 
3 *86:8 *86:10 4.5 
4 *86:10 *86:11 83.79 
5 *86:11 io_out[18] 2.835 
*END

*D_NET *87 0.0431558
*CONN
*P io_out[19] O
*I *437:io_out[19] O *D cntr_example
*CAP
1 io_out[19] 0.00013291
2 *437:io_out[19] 0.00119447
3 *87:17 0.0108253
4 *87:16 0.0106924
5 *87:14 0.00549559
6 *87:13 0.00669006
7 *87:14 *114:8 0
8 *82:15 *87:17 0.000409474
9 *84:19 *87:14 0.000900044
10 *85:10 *87:14 0.0025596
11 *86:8 *87:14 0.00425595
*RES
1 *437:io_out[19] *87:13 12.735 
2 *87:13 *87:14 56.79 
3 *87:14 *87:16 4.5 
4 *87:16 *87:17 83.61 
5 *87:17 io_out[19] 1.755 
*END

*D_NET *88 0.591899
*CONN
*P io_out[1] O
*I *437:io_out[1] O *D cntr_example
*CAP
1 io_out[1] 0.000253458
2 *437:io_out[1] 0.000314695
3 *88:15 0.0232861
4 *88:14 0.0230327
5 *88:12 0.0996726
6 *88:11 0.0996726
7 *88:9 0.00865171
8 *88:8 0.00896641
9 *77:9 *88:9 0.186692
10 *78:9 *88:9 0.141357
*RES
1 *437:io_out[1] *88:8 16.11 
2 *88:8 *88:9 466.65 
3 *88:9 *88:11 4.5 
4 *88:11 *88:12 769.77 
5 *88:12 *88:14 4.5 
6 *88:14 *88:15 181.17 
7 *88:15 io_out[1] 2.835 
*END

*D_NET *99 0.460893
*CONN
*P io_out[2] O
*I *437:io_out[2] O *D cntr_example
*CAP
1 io_out[2] 0.000124112
2 *437:io_out[2] 0.000718664
3 *99:16 0.0228112
4 *99:15 0.0226871
5 *99:13 0.092408
6 *99:12 0.092408
7 *99:10 0.0333203
8 *99:9 0.034039
9 *99:10 *111:8 0.162377
*RES
1 *437:io_out[2] *99:9 10.035 
2 *99:9 *99:10 457.65 
3 *99:10 *99:12 4.5 
4 *99:12 *99:13 712.89 
5 *99:13 *99:15 4.5 
6 *99:15 *99:16 178.47 
7 *99:16 io_out[2] 1.755 
*END

*D_NET *108 0.435891
*CONN
*P io_out[3] O
*I *437:io_out[3] O *D cntr_example
*CAP
1 io_out[3] 0.000345078
2 *437:io_out[3] 0
3 *108:11 0.022731
4 *108:10 0.0223859
5 *108:8 0.0835846
6 *108:7 0.0835846
7 *108:5 0.0323998
8 *108:4 0.0323998
9 *108:5 *112:5 0.15846
*RES
1 *437:io_out[3] *108:4 4.5 
2 *108:4 *108:5 446.85 
3 *108:5 *108:7 4.5 
4 *108:7 *108:8 645.39 
5 *108:8 *108:10 4.5 
6 *108:10 *108:11 175.77 
7 *108:11 io_out[3] 3.375 
*END

*D_NET *109 0.533201
*CONN
*P io_out[4] O
*I *437:io_out[4] O *D cntr_example
*CAP
1 io_out[4] 0.000188785
2 *437:io_out[4] 0.00051924
3 *109:20 0.0222442
4 *109:19 0.0220555
5 *109:17 0.0756126
6 *109:16 0.0756126
7 *109:14 0.00582614
8 *109:13 0.00634538
9 *109:14 *110:10 0.169983
10 *109:14 *113:10 0.154813
*RES
1 *437:io_out[4] *109:13 8.595 
2 *109:13 *109:14 438.75 
3 *109:14 *109:16 4.5 
4 *109:16 *109:17 583.47 
5 *109:17 *109:19 4.5 
6 *109:19 *109:20 173.07 
7 *109:20 io_out[4] 2.295 
*END

*D_NET *110 0.492513
*CONN
*P io_out[5] O
*I *437:io_out[5] O *D cntr_example
*CAP
1 io_out[5] 0.0015262
2 *437:io_out[5] 0.00050773
3 *110:16 0.0213411
4 *110:15 0.0198149
5 *110:13 0.067264
6 *110:12 0.067264
7 *110:10 0.00885669
8 *110:9 0.00936442
9 *110:10 *113:10 0.000943893
10 *81:14 *110:10 0.125647
11 *109:14 *110:10 0.169983
*RES
1 *437:io_out[5] *110:9 7.695 
2 *110:9 *110:10 430.65 
3 *110:10 *110:12 4.5 
4 *110:12 *110:13 518.85 
5 *110:13 *110:15 4.5 
6 *110:15 *110:16 155.34 
7 *110:16 io_out[5] 12.645 
*END

*D_NET *111 0.488106
*CONN
*P io_out[6] O
*I *437:io_out[6] O *D cntr_example
*CAP
1 io_out[6] 0.000253458
2 *437:io_out[6] 0.000663163
3 *111:14 0.0208023
4 *111:13 0.0205488
5 *111:11 0.0595371
6 *111:10 0.0595371
7 *111:8 0.00502996
8 *111:7 0.00569312
9 *111:8 *114:8 0.153665
10 *99:10 *111:8 0.162377
*RES
1 *437:io_out[6] *111:7 9.225 
2 *111:7 *111:8 422.55 
3 *111:8 *111:10 4.5 
4 *111:10 *111:11 459.27 
5 *111:11 *111:13 4.5 
6 *111:13 *111:14 162.27 
7 *111:14 io_out[6] 2.835 
*END

*D_NET *112 0.448362
*CONN
*P io_out[7] O
*I *437:io_out[7] O *D cntr_example
*CAP
1 io_out[7] 0.000142862
2 *437:io_out[7] 0
3 *112:11 0.0203461
4 *112:10 0.0202033
5 *112:8 0.0504441
6 *112:7 0.0504441
7 *112:5 0.00748204
8 *112:4 0.00748204
9 *79:5 *112:5 0.132854
10 *80:5 *112:5 0.000503485
11 *108:5 *112:5 0.15846
*RES
1 *437:io_out[7] *112:4 4.5 
2 *112:4 *112:5 412.65 
3 *112:5 *112:7 4.5 
4 *112:7 *112:8 389.07 
5 *112:8 *112:10 4.5 
6 *112:10 *112:11 159.57 
7 *112:11 io_out[7] 1.755 
*END

*D_NET *113 0.337591
*CONN
*P io_out[8] O
*I *437:io_out[8] O *D cntr_example
*CAP
1 io_out[8] 0.00309603
2 *437:io_out[8] 0.000373941
3 *113:13 0.0458237
4 *113:12 0.0427277
5 *113:10 0.0447191
6 *113:9 0.045093
7 *109:14 *113:10 0.154813
8 *110:10 *113:10 0.000943893
*RES
1 *437:io_out[8] *113:9 7.335 
2 *113:9 *113:10 538.65 
3 *113:10 *113:12 4.5 
4 *113:12 *113:13 329.49 
5 *113:13 io_out[8] 29.745 
*END

*D_NET *114 0.31998
*CONN
*P io_out[9] O
*I *437:io_out[9] O *D cntr_example
*CAP
1 io_out[9] 0.000188785
2 *437:io_out[9] 0.000852434
3 *114:14 0.0197775
4 *114:13 0.0195888
5 *114:11 0.0347468
6 *114:10 0.0347468
7 *114:8 0.0202529
8 *114:7 0.0211053
9 *82:15 *114:8 0.00198882
10 *85:10 *114:8 0.0130667
11 *87:14 *114:8 0
12 *111:8 *114:8 0.153665
*RES
1 *437:io_out[9] *114:7 9.405 
2 *114:7 *114:8 392.85 
3 *114:8 *114:10 4.5 
4 *114:10 *114:11 267.75 
5 *114:11 *114:13 4.5 
6 *114:13 *114:14 154.17 
7 *114:14 io_out[9] 2.295 
*END

*D_NET *313 0.310205
*CONN
*P wb_clk_i I
*I *437:wb_clk_i I *D cntr_example
*CAP
1 wb_clk_i 0.000836512
2 *437:wb_clk_i 0.000258542
3 *313:11 0.0493006
4 *313:10 0.0490421
5 *313:8 0.03199
6 *313:7 0.0328265
7 *313:8 *314:8 0.145951
*RES
1 wb_clk_i *313:7 10.845 
2 *313:7 *313:8 389.25 
3 *313:8 *313:10 4.5 
4 *313:10 *313:11 378.99 
5 *313:11 *437:wb_clk_i 2.025 
*END

*D_NET *314 0.38549
*CONN
*P wb_rst_i I
*I *437:wb_rst_i I *D cntr_example
*CAP
1 wb_rst_i 0.000810134
2 *437:wb_rst_i 0.0490627
3 *314:10 0.0490627
4 *314:8 0.0698967
5 *314:7 0.0707069
6 *313:8 *314:8 0.145951
*RES
1 wb_rst_i *314:7 10.665 
2 *314:7 *314:8 629.37 
3 *314:8 *314:10 4.5 
4 *314:10 *437:wb_rst_i 379.125 
*END
