*SPEF "ieee 1481-1999"
*DESIGN "cntr_example"
*DATE "11:11:11 Fri 11 11, 1111"
*VENDOR "OpenRCX"
*PROGRAM "Parallel Extraction"
*VERSION "1.0"
*DESIGN_FLOW "NAME_SCOPE LOCAL" "PIN_CAP NONE"
*DIVIDER /
*DELIMITER :
*BUS_DELIMITER []
*T_UNIT 1 NS
*C_UNIT 1 PF
*R_UNIT 1 OHM
*L_UNIT 1 HENRY

*NAME_MAP
*1 io_out[0]
*2 io_out[10]
*3 io_out[11]
*4 io_out[12]
*5 io_out[13]
*6 io_out[14]
*7 io_out[15]
*8 io_out[16]
*9 io_out[17]
*10 io_out[18]
*11 io_out[19]
*12 io_out[1]
*13 net22
*14 net23
*15 net24
*16 net25
*17 net26
*18 net27
*19 net28
*20 net29
*21 net30
*22 net31
*23 io_out[2]
*24 net32
*25 net33
*26 net34
*27 net35
*28 net36
*29 net37
*30 net38
*31 net39
*32 io_out[3]
*33 io_out[4]
*34 io_out[5]
*35 io_out[6]
*36 io_out[7]
*37 io_out[8]
*38 io_out[9]
*41 wb_clk_i
*42 wb_rst_i
*43 _000_
*44 _001_
*45 _002_
*46 _003_
*47 _004_
*48 _005_
*49 _006_
*50 _007_
*51 _008_
*52 _009_
*53 _010_
*54 _011_
*55 _012_
*56 _013_
*57 _014_
*58 _015_
*59 _016_
*60 _017_
*61 _018_
*62 _019_
*63 _020_
*64 _021_
*65 _022_
*66 _023_
*67 _024_
*68 _025_
*69 _026_
*70 _027_
*71 _028_
*72 _029_
*73 _030_
*74 _031_
*75 _032_
*76 _033_
*77 _034_
*78 _035_
*79 _036_
*80 _037_
*81 _038_
*82 _039_
*83 _040_
*84 _041_
*85 _042_
*86 _043_
*87 _044_
*88 _045_
*89 _046_
*90 clknet_0_wb_clk_i
*91 clknet_1_0__leaf_wb_clk_i
*92 clknet_1_1__leaf_wb_clk_i
*93 net1
*94 net10
*95 net11
*96 net12
*97 net13
*98 net14
*99 net15
*100 net16
*101 net17
*102 net18
*103 net19
*104 net2
*105 net20
*106 net21
*107 net3
*108 net4
*109 net5
*110 net6
*111 net7
*112 net8
*113 net9
*114 ANTENNA__047__I
*115 ANTENNA__048__A1
*116 ANTENNA__048__A2
*117 ANTENNA__049__I
*118 ANTENNA__050__A1
*119 ANTENNA__050__A2
*120 ANTENNA__050__B
*121 ANTENNA__051__A1
*122 ANTENNA__051__A2
*123 ANTENNA__051__B
*124 ANTENNA__052__A1
*125 ANTENNA__052__A2
*126 ANTENNA__052__B
*127 ANTENNA__053__A1
*128 ANTENNA__053__A2
*129 ANTENNA__053__A3
*130 ANTENNA__054__A1
*131 ANTENNA__055__A1
*132 ANTENNA__055__A2
*133 ANTENNA__056__A1
*134 ANTENNA__057__A1
*135 ANTENNA__057__A2
*136 ANTENNA__058__A1
*137 ANTENNA__058__A2
*138 ANTENNA__059__A1
*139 ANTENNA__059__A2
*140 ANTENNA__059__B
*141 ANTENNA__060__A1
*142 ANTENNA__060__A2
*143 ANTENNA__061__A1
*144 ANTENNA__061__A2
*145 ANTENNA__061__B
*146 ANTENNA__062__A1
*147 ANTENNA__062__A2
*148 ANTENNA__062__A3
*149 ANTENNA__063__A1
*150 ANTENNA__063__A2
*151 ANTENNA__064__A1
*152 ANTENNA__064__A2
*153 ANTENNA__065__A1
*154 ANTENNA__065__A2
*155 ANTENNA__066__A1
*156 ANTENNA__067__A1
*157 ANTENNA__067__A2
*158 ANTENNA__068__A1
*159 ANTENNA__068__A2
*160 ANTENNA__068__B
*161 ANTENNA__069__A1
*162 ANTENNA__069__A2
*163 ANTENNA__070__A1
*164 ANTENNA__070__A2
*165 ANTENNA__070__B
*166 ANTENNA__071__A1
*167 ANTENNA__071__A2
*168 ANTENNA__071__A3
*169 ANTENNA__072__A1
*170 ANTENNA__074__A1
*171 ANTENNA__075__A1
*172 ANTENNA__076__A1
*173 ANTENNA__076__A2
*174 ANTENNA__077__A1
*175 ANTENNA__077__A2
*176 ANTENNA__077__B
*177 ANTENNA__078__A1
*178 ANTENNA__078__A2
*179 ANTENNA__079__A1
*180 ANTENNA__079__A2
*181 ANTENNA__079__B
*182 ANTENNA__080__A1
*183 ANTENNA__080__A2
*184 ANTENNA__080__A3
*185 ANTENNA__081__A1
*186 ANTENNA__081__A2
*187 ANTENNA__082__A1
*188 ANTENNA__083__A1
*189 ANTENNA__083__A2
*190 ANTENNA__084__A1
*191 ANTENNA__084__A2
*192 ANTENNA__085__A1
*193 ANTENNA__085__A2
*194 ANTENNA__086__A1
*195 ANTENNA__086__A2
*196 ANTENNA__086__B
*197 ANTENNA__087__A1
*198 ANTENNA__087__A2
*199 ANTENNA__088__A1
*200 ANTENNA__088__A2
*201 ANTENNA__088__B
*202 ANTENNA__089__A1
*203 ANTENNA__089__A2
*204 ANTENNA__089__A3
*205 ANTENNA__090__A1
*206 ANTENNA__090__A2
*207 ANTENNA__091__A1
*208 ANTENNA__091__A2
*209 ANTENNA__092__A1
*210 ANTENNA__092__A2
*211 ANTENNA__093__A1
*212 ANTENNA__094__CLK
*213 ANTENNA__094__D
*214 ANTENNA__095__CLK
*215 ANTENNA__095__D
*216 ANTENNA__096__CLK
*217 ANTENNA__096__D
*218 ANTENNA__097__CLK
*219 ANTENNA__097__D
*220 ANTENNA__098__CLK
*221 ANTENNA__098__D
*222 ANTENNA__099__CLK
*223 ANTENNA__099__D
*224 ANTENNA__100__CLK
*225 ANTENNA__100__D
*226 ANTENNA__101__CLK
*227 ANTENNA__101__D
*228 ANTENNA__102__CLK
*229 ANTENNA__102__D
*230 ANTENNA__103__CLK
*231 ANTENNA__103__D
*232 ANTENNA__104__CLK
*233 ANTENNA__104__D
*234 ANTENNA__105__CLK
*235 ANTENNA__105__D
*236 ANTENNA__106__CLK
*237 ANTENNA__106__D
*238 ANTENNA__107__CLK
*239 ANTENNA__107__D
*240 ANTENNA__108__CLK
*241 ANTENNA__108__D
*242 ANTENNA__109__CLK
*243 ANTENNA__109__D
*244 ANTENNA__110__CLK
*245 ANTENNA__110__D
*246 ANTENNA__111__CLK
*247 ANTENNA__111__D
*248 ANTENNA__112__CLK
*249 ANTENNA__112__D
*250 ANTENNA__113__CLK
*251 ANTENNA__113__D
*252 ANTENNA_clkbuf_0_wb_clk_i_I
*253 ANTENNA_input1_I
*254 ANTENNA_output10_I
*255 ANTENNA_output11_I
*256 ANTENNA_output12_I
*257 ANTENNA_output13_I
*258 ANTENNA_output14_I
*259 ANTENNA_output15_I
*260 ANTENNA_output16_I
*261 ANTENNA_output17_I
*262 ANTENNA_output18_I
*263 ANTENNA_output19_I
*264 ANTENNA_output20_I
*265 ANTENNA_output21_I
*266 ANTENNA_output2_I
*267 ANTENNA_output3_I
*268 ANTENNA_output4_I
*269 ANTENNA_output5_I
*270 ANTENNA_output6_I
*271 ANTENNA_output7_I
*272 ANTENNA_output8_I
*273 ANTENNA_output9_I
*274 FILLER_0_1014
*275 FILLER_0_1017
*276 FILLER_0_104
*277 FILLER_0_1049
*278 FILLER_0_1052
*279 FILLER_0_1055
*280 FILLER_0_107
*281 FILLER_0_1071
*282 FILLER_0_1079
*283 FILLER_0_1083
*284 FILLER_0_1087
*285 FILLER_0_1119
*286 FILLER_0_1122
*287 FILLER_0_1154
*288 FILLER_0_1157
*289 FILLER_0_1189
*290 FILLER_0_1192
*291 FILLER_0_1224
*292 FILLER_0_1227
*293 FILLER_0_1259
*294 FILLER_0_1262
*295 FILLER_0_1294
*296 FILLER_0_1297
*297 FILLER_0_1313
*298 FILLER_0_1321
*299 FILLER_0_1325
*300 FILLER_0_1329
*301 FILLER_0_1332
*302 FILLER_0_1347
*303 FILLER_0_1363
*304 FILLER_0_1367
*305 FILLER_0_139
*306 FILLER_0_1399
*307 FILLER_0_1402
*308 FILLER_0_142
*309 FILLER_0_1434
*310 FILLER_0_1437
*311 FILLER_0_1469
*312 FILLER_0_1472
*313 FILLER_0_1504
*314 FILLER_0_1507
*315 FILLER_0_1539
*316 FILLER_0_1542
*317 FILLER_0_1574
*318 FILLER_0_1577
*319 FILLER_0_1585
*320 FILLER_0_1589
*321 FILLER_0_1593
*322 FILLER_0_1609
*323 FILLER_0_1612
*324 FILLER_0_1644
*325 FILLER_0_1647
*326 FILLER_0_1679
*327 FILLER_0_1682
*328 FILLER_0_1714
*329 FILLER_0_1717
*330 FILLER_0_174
*331 FILLER_0_1749
*332 FILLER_0_1752
*333 FILLER_0_177
*334 FILLER_0_1784
*335 FILLER_0_1787
*336 FILLER_0_1819
*337 FILLER_0_1822
*338 FILLER_0_1838
*339 FILLER_0_1846
*340 FILLER_0_1850
*341 FILLER_0_1854
*342 FILLER_0_1857
*343 FILLER_0_1875
*344 FILLER_0_1883
*345 FILLER_0_1887
*346 FILLER_0_1889
*347 FILLER_0_1892
*348 FILLER_0_1924
*349 FILLER_0_1927
*350 FILLER_0_1959
*351 FILLER_0_1962
*352 FILLER_0_1994
*353 FILLER_0_1997
*354 FILLER_0_2
*355 FILLER_0_2029
*356 FILLER_0_2032
*357 FILLER_0_2064
*358 FILLER_0_2067
*359 FILLER_0_209
*360 FILLER_0_2099
*361 FILLER_0_2102
*362 FILLER_0_212
*363 FILLER_0_2134
*364 FILLER_0_2137
*365 FILLER_0_2142
*366 FILLER_0_2158
*367 FILLER_0_2166
*368 FILLER_0_2172
*369 FILLER_0_2204
*370 FILLER_0_2207
*371 FILLER_0_2239
*372 FILLER_0_2242
*373 FILLER_0_2274
*374 FILLER_0_2277
*375 FILLER_0_23
*376 FILLER_0_2309
*377 FILLER_0_2312
*378 FILLER_0_2344
*379 FILLER_0_2347
*380 FILLER_0_2379
*381 FILLER_0_2382
*382 FILLER_0_2390
*383 FILLER_0_2394
*384 FILLER_0_2398
*385 FILLER_0_2414
*386 FILLER_0_2417
*387 FILLER_0_244
*388 FILLER_0_2449
*389 FILLER_0_2452
*390 FILLER_0_247
*391 FILLER_0_2484
*392 FILLER_0_2487
*393 FILLER_0_251
*394 FILLER_0_2519
*395 FILLER_0_2522
*396 FILLER_0_2554
*397 FILLER_0_2557
*398 FILLER_0_257
*399 FILLER_0_2589
*400 FILLER_0_2592
*401 FILLER_0_2624
*402 FILLER_0_2627
*403 FILLER_0_2631
*404 FILLER_0_2635
*405 FILLER_0_2651
*406 FILLER_0_273
*407 FILLER_0_277
*408 FILLER_0_279
*409 FILLER_0_282
*410 FILLER_0_31
*411 FILLER_0_314
*412 FILLER_0_317
*413 FILLER_0_349
*414 FILLER_0_352
*415 FILLER_0_37
*416 FILLER_0_384
*417 FILLER_0_387
*418 FILLER_0_419
*419 FILLER_0_422
*420 FILLER_0_454
*421 FILLER_0_457
*422 FILLER_0_489
*423 FILLER_0_492
*424 FILLER_0_524
*425 FILLER_0_527
*426 FILLER_0_532
*427 FILLER_0_548
*428 FILLER_0_556
*429 FILLER_0_562
*430 FILLER_0_594
*431 FILLER_0_597
*432 FILLER_0_629
*433 FILLER_0_632
*434 FILLER_0_664
*435 FILLER_0_667
*436 FILLER_0_69
*437 FILLER_0_699
*438 FILLER_0_7
*439 FILLER_0_702
*440 FILLER_0_72
*441 FILLER_0_734
*442 FILLER_0_737
*443 FILLER_0_769
*444 FILLER_0_772
*445 FILLER_0_780
*446 FILLER_0_784
*447 FILLER_0_788
*448 FILLER_0_804
*449 FILLER_0_807
*450 FILLER_0_839
*451 FILLER_0_842
*452 FILLER_0_874
*453 FILLER_0_877
*454 FILLER_0_909
*455 FILLER_0_912
*456 FILLER_0_944
*457 FILLER_0_947
*458 FILLER_0_979
*459 FILLER_0_982
*460 FILLER_100_101
*461 FILLER_100_1024
*462 FILLER_100_1028
*463 FILLER_100_1031
*464 FILLER_100_105
*465 FILLER_100_108
*466 FILLER_100_1095
*467 FILLER_100_1099
*468 FILLER_100_1102
*469 FILLER_100_1166
*470 FILLER_100_1170
*471 FILLER_100_1173
*472 FILLER_100_1237
*473 FILLER_100_1241
*474 FILLER_100_1244
*475 FILLER_100_1308
*476 FILLER_100_1312
*477 FILLER_100_1315
*478 FILLER_100_1379
*479 FILLER_100_1383
*480 FILLER_100_1386
*481 FILLER_100_1450
*482 FILLER_100_1454
*483 FILLER_100_1457
*484 FILLER_100_1521
*485 FILLER_100_1525
*486 FILLER_100_1528
*487 FILLER_100_1592
*488 FILLER_100_1596
*489 FILLER_100_1599
*490 FILLER_100_1663
*491 FILLER_100_1667
*492 FILLER_100_1670
*493 FILLER_100_172
*494 FILLER_100_1734
*495 FILLER_100_1738
*496 FILLER_100_1741
*497 FILLER_100_176
*498 FILLER_100_179
*499 FILLER_100_1805
*500 FILLER_100_1809
*501 FILLER_100_1812
*502 FILLER_100_1876
*503 FILLER_100_1880
*504 FILLER_100_1883
*505 FILLER_100_1947
*506 FILLER_100_1951
*507 FILLER_100_1954
*508 FILLER_100_2
*509 FILLER_100_2018
*510 FILLER_100_2022
*511 FILLER_100_2025
*512 FILLER_100_2089
*513 FILLER_100_2093
*514 FILLER_100_2096
*515 FILLER_100_2160
*516 FILLER_100_2164
*517 FILLER_100_2167
*518 FILLER_100_2231
*519 FILLER_100_2235
*520 FILLER_100_2238
*521 FILLER_100_2302
*522 FILLER_100_2306
*523 FILLER_100_2309
*524 FILLER_100_2373
*525 FILLER_100_2377
*526 FILLER_100_2380
*527 FILLER_100_243
*528 FILLER_100_2444
*529 FILLER_100_2448
*530 FILLER_100_2451
*531 FILLER_100_247
*532 FILLER_100_250
*533 FILLER_100_2515
*534 FILLER_100_2519
*535 FILLER_100_2522
*536 FILLER_100_2586
*537 FILLER_100_2590
*538 FILLER_100_2593
*539 FILLER_100_2625
*540 FILLER_100_2641
*541 FILLER_100_2649
*542 FILLER_100_2651
*543 FILLER_100_314
*544 FILLER_100_318
*545 FILLER_100_321
*546 FILLER_100_34
*547 FILLER_100_37
*548 FILLER_100_385
*549 FILLER_100_389
*550 FILLER_100_392
*551 FILLER_100_456
*552 FILLER_100_460
*553 FILLER_100_463
*554 FILLER_100_527
*555 FILLER_100_531
*556 FILLER_100_534
*557 FILLER_100_598
*558 FILLER_100_602
*559 FILLER_100_605
*560 FILLER_100_669
*561 FILLER_100_673
*562 FILLER_100_676
*563 FILLER_100_740
*564 FILLER_100_744
*565 FILLER_100_747
*566 FILLER_100_811
*567 FILLER_100_815
*568 FILLER_100_818
*569 FILLER_100_882
*570 FILLER_100_886
*571 FILLER_100_889
*572 FILLER_100_953
*573 FILLER_100_957
*574 FILLER_100_960
*575 FILLER_101_1060
*576 FILLER_101_1064
*577 FILLER_101_1067
*578 FILLER_101_1131
*579 FILLER_101_1135
*580 FILLER_101_1138
*581 FILLER_101_1202
*582 FILLER_101_1206
*583 FILLER_101_1209
*584 FILLER_101_1273
*585 FILLER_101_1277
*586 FILLER_101_1280
*587 FILLER_101_1344
*588 FILLER_101_1348
*589 FILLER_101_1351
*590 FILLER_101_137
*591 FILLER_101_141
*592 FILLER_101_1415
*593 FILLER_101_1419
*594 FILLER_101_1422
*595 FILLER_101_144
*596 FILLER_101_1486
*597 FILLER_101_1490
*598 FILLER_101_1493
*599 FILLER_101_1557
*600 FILLER_101_1561
*601 FILLER_101_1564
*602 FILLER_101_1628
*603 FILLER_101_1632
*604 FILLER_101_1635
*605 FILLER_101_1699
*606 FILLER_101_1703
*607 FILLER_101_1706
*608 FILLER_101_1770
*609 FILLER_101_1774
*610 FILLER_101_1777
*611 FILLER_101_1841
*612 FILLER_101_1845
*613 FILLER_101_1848
*614 FILLER_101_1912
*615 FILLER_101_1916
*616 FILLER_101_1919
*617 FILLER_101_1983
*618 FILLER_101_1987
*619 FILLER_101_1990
*620 FILLER_101_2
*621 FILLER_101_2054
*622 FILLER_101_2058
*623 FILLER_101_2061
*624 FILLER_101_208
*625 FILLER_101_212
*626 FILLER_101_2125
*627 FILLER_101_2129
*628 FILLER_101_2132
*629 FILLER_101_215
*630 FILLER_101_2196
*631 FILLER_101_2200
*632 FILLER_101_2203
*633 FILLER_101_2267
*634 FILLER_101_2271
*635 FILLER_101_2274
*636 FILLER_101_2338
*637 FILLER_101_2342
*638 FILLER_101_2345
*639 FILLER_101_2409
*640 FILLER_101_2413
*641 FILLER_101_2416
*642 FILLER_101_2480
*643 FILLER_101_2484
*644 FILLER_101_2487
*645 FILLER_101_2551
*646 FILLER_101_2555
*647 FILLER_101_2558
*648 FILLER_101_2622
*649 FILLER_101_2626
*650 FILLER_101_2629
*651 FILLER_101_2645
*652 FILLER_101_2649
*653 FILLER_101_2651
*654 FILLER_101_279
*655 FILLER_101_283
*656 FILLER_101_286
*657 FILLER_101_350
*658 FILLER_101_354
*659 FILLER_101_357
*660 FILLER_101_421
*661 FILLER_101_425
*662 FILLER_101_428
*663 FILLER_101_492
*664 FILLER_101_496
*665 FILLER_101_499
*666 FILLER_101_563
*667 FILLER_101_567
*668 FILLER_101_570
*669 FILLER_101_634
*670 FILLER_101_638
*671 FILLER_101_641
*672 FILLER_101_66
*673 FILLER_101_70
*674 FILLER_101_705
*675 FILLER_101_709
*676 FILLER_101_712
*677 FILLER_101_73
*678 FILLER_101_776
*679 FILLER_101_780
*680 FILLER_101_783
*681 FILLER_101_847
*682 FILLER_101_851
*683 FILLER_101_854
*684 FILLER_101_918
*685 FILLER_101_922
*686 FILLER_101_925
*687 FILLER_101_989
*688 FILLER_101_993
*689 FILLER_101_996
*690 FILLER_102_101
*691 FILLER_102_1024
*692 FILLER_102_1028
*693 FILLER_102_1031
*694 FILLER_102_105
*695 FILLER_102_108
*696 FILLER_102_1095
*697 FILLER_102_1099
*698 FILLER_102_1102
*699 FILLER_102_1166
*700 FILLER_102_1170
*701 FILLER_102_1173
*702 FILLER_102_1237
*703 FILLER_102_1241
*704 FILLER_102_1244
*705 FILLER_102_1308
*706 FILLER_102_1312
*707 FILLER_102_1315
*708 FILLER_102_1379
*709 FILLER_102_1383
*710 FILLER_102_1386
*711 FILLER_102_1450
*712 FILLER_102_1454
*713 FILLER_102_1457
*714 FILLER_102_1521
*715 FILLER_102_1525
*716 FILLER_102_1528
*717 FILLER_102_1592
*718 FILLER_102_1596
*719 FILLER_102_1599
*720 FILLER_102_1663
*721 FILLER_102_1667
*722 FILLER_102_1670
*723 FILLER_102_172
*724 FILLER_102_1734
*725 FILLER_102_1738
*726 FILLER_102_1741
*727 FILLER_102_176
*728 FILLER_102_179
*729 FILLER_102_1805
*730 FILLER_102_1809
*731 FILLER_102_1812
*732 FILLER_102_1876
*733 FILLER_102_1880
*734 FILLER_102_1883
*735 FILLER_102_1947
*736 FILLER_102_1951
*737 FILLER_102_1954
*738 FILLER_102_2
*739 FILLER_102_2018
*740 FILLER_102_2022
*741 FILLER_102_2025
*742 FILLER_102_2089
*743 FILLER_102_2093
*744 FILLER_102_2096
*745 FILLER_102_2160
*746 FILLER_102_2164
*747 FILLER_102_2167
*748 FILLER_102_2231
*749 FILLER_102_2235
*750 FILLER_102_2238
*751 FILLER_102_2302
*752 FILLER_102_2306
*753 FILLER_102_2309
*754 FILLER_102_2373
*755 FILLER_102_2377
*756 FILLER_102_2380
*757 FILLER_102_243
*758 FILLER_102_2444
*759 FILLER_102_2448
*760 FILLER_102_2451
*761 FILLER_102_247
*762 FILLER_102_250
*763 FILLER_102_2515
*764 FILLER_102_2519
*765 FILLER_102_2522
*766 FILLER_102_2586
*767 FILLER_102_2590
*768 FILLER_102_2593
*769 FILLER_102_2625
*770 FILLER_102_2641
*771 FILLER_102_2649
*772 FILLER_102_2651
*773 FILLER_102_314
*774 FILLER_102_318
*775 FILLER_102_321
*776 FILLER_102_34
*777 FILLER_102_37
*778 FILLER_102_385
*779 FILLER_102_389
*780 FILLER_102_392
*781 FILLER_102_456
*782 FILLER_102_460
*783 FILLER_102_463
*784 FILLER_102_527
*785 FILLER_102_531
*786 FILLER_102_534
*787 FILLER_102_598
*788 FILLER_102_602
*789 FILLER_102_605
*790 FILLER_102_669
*791 FILLER_102_673
*792 FILLER_102_676
*793 FILLER_102_740
*794 FILLER_102_744
*795 FILLER_102_747
*796 FILLER_102_811
*797 FILLER_102_815
*798 FILLER_102_818
*799 FILLER_102_882
*800 FILLER_102_886
*801 FILLER_102_889
*802 FILLER_102_953
*803 FILLER_102_957
*804 FILLER_102_960
*805 FILLER_103_1060
*806 FILLER_103_1064
*807 FILLER_103_1067
*808 FILLER_103_1131
*809 FILLER_103_1135
*810 FILLER_103_1138
*811 FILLER_103_1202
*812 FILLER_103_1206
*813 FILLER_103_1209
*814 FILLER_103_1273
*815 FILLER_103_1277
*816 FILLER_103_1280
*817 FILLER_103_1344
*818 FILLER_103_1348
*819 FILLER_103_1351
*820 FILLER_103_137
*821 FILLER_103_141
*822 FILLER_103_1415
*823 FILLER_103_1419
*824 FILLER_103_1422
*825 FILLER_103_144
*826 FILLER_103_1486
*827 FILLER_103_1490
*828 FILLER_103_1493
*829 FILLER_103_1557
*830 FILLER_103_1561
*831 FILLER_103_1564
*832 FILLER_103_1628
*833 FILLER_103_1632
*834 FILLER_103_1635
*835 FILLER_103_1699
*836 FILLER_103_1703
*837 FILLER_103_1706
*838 FILLER_103_1770
*839 FILLER_103_1774
*840 FILLER_103_1777
*841 FILLER_103_1841
*842 FILLER_103_1845
*843 FILLER_103_1848
*844 FILLER_103_1912
*845 FILLER_103_1916
*846 FILLER_103_1919
*847 FILLER_103_1983
*848 FILLER_103_1987
*849 FILLER_103_1990
*850 FILLER_103_2
*851 FILLER_103_2054
*852 FILLER_103_2058
*853 FILLER_103_2061
*854 FILLER_103_208
*855 FILLER_103_212
*856 FILLER_103_2125
*857 FILLER_103_2129
*858 FILLER_103_2132
*859 FILLER_103_215
*860 FILLER_103_2196
*861 FILLER_103_2200
*862 FILLER_103_2203
*863 FILLER_103_2267
*864 FILLER_103_2271
*865 FILLER_103_2274
*866 FILLER_103_2338
*867 FILLER_103_2342
*868 FILLER_103_2345
*869 FILLER_103_2409
*870 FILLER_103_2413
*871 FILLER_103_2416
*872 FILLER_103_2480
*873 FILLER_103_2484
*874 FILLER_103_2487
*875 FILLER_103_2551
*876 FILLER_103_2555
*877 FILLER_103_2558
*878 FILLER_103_2622
*879 FILLER_103_2626
*880 FILLER_103_2629
*881 FILLER_103_2645
*882 FILLER_103_2649
*883 FILLER_103_2651
*884 FILLER_103_279
*885 FILLER_103_283
*886 FILLER_103_286
*887 FILLER_103_350
*888 FILLER_103_354
*889 FILLER_103_357
*890 FILLER_103_421
*891 FILLER_103_425
*892 FILLER_103_428
*893 FILLER_103_492
*894 FILLER_103_496
*895 FILLER_103_499
*896 FILLER_103_563
*897 FILLER_103_567
*898 FILLER_103_570
*899 FILLER_103_634
*900 FILLER_103_638
*901 FILLER_103_641
*902 FILLER_103_66
*903 FILLER_103_70
*904 FILLER_103_705
*905 FILLER_103_709
*906 FILLER_103_712
*907 FILLER_103_73
*908 FILLER_103_776
*909 FILLER_103_780
*910 FILLER_103_783
*911 FILLER_103_847
*912 FILLER_103_851
*913 FILLER_103_854
*914 FILLER_103_918
*915 FILLER_103_922
*916 FILLER_103_925
*917 FILLER_103_989
*918 FILLER_103_993
*919 FILLER_103_996
*920 FILLER_104_101
*921 FILLER_104_1024
*922 FILLER_104_1028
*923 FILLER_104_1031
*924 FILLER_104_105
*925 FILLER_104_108
*926 FILLER_104_1095
*927 FILLER_104_1099
*928 FILLER_104_1102
*929 FILLER_104_1166
*930 FILLER_104_1170
*931 FILLER_104_1173
*932 FILLER_104_1237
*933 FILLER_104_1241
*934 FILLER_104_1244
*935 FILLER_104_1308
*936 FILLER_104_1312
*937 FILLER_104_1315
*938 FILLER_104_1379
*939 FILLER_104_1383
*940 FILLER_104_1386
*941 FILLER_104_1450
*942 FILLER_104_1454
*943 FILLER_104_1457
*944 FILLER_104_1521
*945 FILLER_104_1525
*946 FILLER_104_1528
*947 FILLER_104_1592
*948 FILLER_104_1596
*949 FILLER_104_1599
*950 FILLER_104_1663
*951 FILLER_104_1667
*952 FILLER_104_1670
*953 FILLER_104_172
*954 FILLER_104_1734
*955 FILLER_104_1738
*956 FILLER_104_1741
*957 FILLER_104_176
*958 FILLER_104_179
*959 FILLER_104_1805
*960 FILLER_104_1809
*961 FILLER_104_1812
*962 FILLER_104_1876
*963 FILLER_104_1880
*964 FILLER_104_1883
*965 FILLER_104_1947
*966 FILLER_104_1951
*967 FILLER_104_1954
*968 FILLER_104_2
*969 FILLER_104_2018
*970 FILLER_104_2022
*971 FILLER_104_2025
*972 FILLER_104_2089
*973 FILLER_104_2093
*974 FILLER_104_2096
*975 FILLER_104_2160
*976 FILLER_104_2164
*977 FILLER_104_2167
*978 FILLER_104_2231
*979 FILLER_104_2235
*980 FILLER_104_2238
*981 FILLER_104_2302
*982 FILLER_104_2306
*983 FILLER_104_2309
*984 FILLER_104_2373
*985 FILLER_104_2377
*986 FILLER_104_2380
*987 FILLER_104_243
*988 FILLER_104_2444
*989 FILLER_104_2448
*990 FILLER_104_2451
*991 FILLER_104_247
*992 FILLER_104_250
*993 FILLER_104_2515
*994 FILLER_104_2519
*995 FILLER_104_2522
*996 FILLER_104_2586
*997 FILLER_104_2590
*998 FILLER_104_2593
*999 FILLER_104_2625
*1000 FILLER_104_2641
*1001 FILLER_104_2649
*1002 FILLER_104_2651
*1003 FILLER_104_314
*1004 FILLER_104_318
*1005 FILLER_104_321
*1006 FILLER_104_34
*1007 FILLER_104_37
*1008 FILLER_104_385
*1009 FILLER_104_389
*1010 FILLER_104_392
*1011 FILLER_104_456
*1012 FILLER_104_460
*1013 FILLER_104_463
*1014 FILLER_104_527
*1015 FILLER_104_531
*1016 FILLER_104_534
*1017 FILLER_104_598
*1018 FILLER_104_602
*1019 FILLER_104_605
*1020 FILLER_104_669
*1021 FILLER_104_673
*1022 FILLER_104_676
*1023 FILLER_104_740
*1024 FILLER_104_744
*1025 FILLER_104_747
*1026 FILLER_104_811
*1027 FILLER_104_815
*1028 FILLER_104_818
*1029 FILLER_104_882
*1030 FILLER_104_886
*1031 FILLER_104_889
*1032 FILLER_104_953
*1033 FILLER_104_957
*1034 FILLER_104_960
*1035 FILLER_105_1060
*1036 FILLER_105_1064
*1037 FILLER_105_1067
*1038 FILLER_105_1131
*1039 FILLER_105_1135
*1040 FILLER_105_1138
*1041 FILLER_105_1202
*1042 FILLER_105_1206
*1043 FILLER_105_1209
*1044 FILLER_105_1273
*1045 FILLER_105_1277
*1046 FILLER_105_1280
*1047 FILLER_105_1344
*1048 FILLER_105_1348
*1049 FILLER_105_1351
*1050 FILLER_105_137
*1051 FILLER_105_141
*1052 FILLER_105_1415
*1053 FILLER_105_1419
*1054 FILLER_105_1422
*1055 FILLER_105_144
*1056 FILLER_105_1486
*1057 FILLER_105_1490
*1058 FILLER_105_1493
*1059 FILLER_105_1557
*1060 FILLER_105_1561
*1061 FILLER_105_1564
*1062 FILLER_105_1628
*1063 FILLER_105_1632
*1064 FILLER_105_1635
*1065 FILLER_105_1699
*1066 FILLER_105_1703
*1067 FILLER_105_1706
*1068 FILLER_105_1770
*1069 FILLER_105_1774
*1070 FILLER_105_1777
*1071 FILLER_105_1841
*1072 FILLER_105_1845
*1073 FILLER_105_1848
*1074 FILLER_105_1912
*1075 FILLER_105_1916
*1076 FILLER_105_1919
*1077 FILLER_105_1983
*1078 FILLER_105_1987
*1079 FILLER_105_1990
*1080 FILLER_105_2
*1081 FILLER_105_2054
*1082 FILLER_105_2058
*1083 FILLER_105_2061
*1084 FILLER_105_208
*1085 FILLER_105_212
*1086 FILLER_105_2125
*1087 FILLER_105_2129
*1088 FILLER_105_2132
*1089 FILLER_105_215
*1090 FILLER_105_2196
*1091 FILLER_105_2200
*1092 FILLER_105_2203
*1093 FILLER_105_2267
*1094 FILLER_105_2271
*1095 FILLER_105_2274
*1096 FILLER_105_2338
*1097 FILLER_105_2342
*1098 FILLER_105_2345
*1099 FILLER_105_2409
*1100 FILLER_105_2413
*1101 FILLER_105_2416
*1102 FILLER_105_2480
*1103 FILLER_105_2484
*1104 FILLER_105_2487
*1105 FILLER_105_2551
*1106 FILLER_105_2555
*1107 FILLER_105_2558
*1108 FILLER_105_2622
*1109 FILLER_105_2626
*1110 FILLER_105_2629
*1111 FILLER_105_2645
*1112 FILLER_105_2649
*1113 FILLER_105_2651
*1114 FILLER_105_279
*1115 FILLER_105_283
*1116 FILLER_105_286
*1117 FILLER_105_350
*1118 FILLER_105_354
*1119 FILLER_105_357
*1120 FILLER_105_421
*1121 FILLER_105_425
*1122 FILLER_105_428
*1123 FILLER_105_492
*1124 FILLER_105_496
*1125 FILLER_105_499
*1126 FILLER_105_563
*1127 FILLER_105_567
*1128 FILLER_105_570
*1129 FILLER_105_634
*1130 FILLER_105_638
*1131 FILLER_105_641
*1132 FILLER_105_66
*1133 FILLER_105_70
*1134 FILLER_105_705
*1135 FILLER_105_709
*1136 FILLER_105_712
*1137 FILLER_105_73
*1138 FILLER_105_776
*1139 FILLER_105_780
*1140 FILLER_105_783
*1141 FILLER_105_847
*1142 FILLER_105_851
*1143 FILLER_105_854
*1144 FILLER_105_918
*1145 FILLER_105_922
*1146 FILLER_105_925
*1147 FILLER_105_989
*1148 FILLER_105_993
*1149 FILLER_105_996
*1150 FILLER_106_101
*1151 FILLER_106_1024
*1152 FILLER_106_1028
*1153 FILLER_106_1031
*1154 FILLER_106_105
*1155 FILLER_106_108
*1156 FILLER_106_1095
*1157 FILLER_106_1099
*1158 FILLER_106_1102
*1159 FILLER_106_1166
*1160 FILLER_106_1170
*1161 FILLER_106_1173
*1162 FILLER_106_1237
*1163 FILLER_106_1241
*1164 FILLER_106_1244
*1165 FILLER_106_1308
*1166 FILLER_106_1312
*1167 FILLER_106_1315
*1168 FILLER_106_1379
*1169 FILLER_106_1383
*1170 FILLER_106_1386
*1171 FILLER_106_1450
*1172 FILLER_106_1454
*1173 FILLER_106_1457
*1174 FILLER_106_1521
*1175 FILLER_106_1525
*1176 FILLER_106_1528
*1177 FILLER_106_1592
*1178 FILLER_106_1596
*1179 FILLER_106_1599
*1180 FILLER_106_1663
*1181 FILLER_106_1667
*1182 FILLER_106_1670
*1183 FILLER_106_172
*1184 FILLER_106_1734
*1185 FILLER_106_1738
*1186 FILLER_106_1741
*1187 FILLER_106_176
*1188 FILLER_106_179
*1189 FILLER_106_1805
*1190 FILLER_106_1809
*1191 FILLER_106_1812
*1192 FILLER_106_1876
*1193 FILLER_106_1880
*1194 FILLER_106_1883
*1195 FILLER_106_1947
*1196 FILLER_106_1951
*1197 FILLER_106_1954
*1198 FILLER_106_2
*1199 FILLER_106_2018
*1200 FILLER_106_2022
*1201 FILLER_106_2025
*1202 FILLER_106_2089
*1203 FILLER_106_2093
*1204 FILLER_106_2096
*1205 FILLER_106_2160
*1206 FILLER_106_2164
*1207 FILLER_106_2167
*1208 FILLER_106_2231
*1209 FILLER_106_2235
*1210 FILLER_106_2238
*1211 FILLER_106_2302
*1212 FILLER_106_2306
*1213 FILLER_106_2309
*1214 FILLER_106_2373
*1215 FILLER_106_2377
*1216 FILLER_106_2380
*1217 FILLER_106_243
*1218 FILLER_106_2444
*1219 FILLER_106_2448
*1220 FILLER_106_2451
*1221 FILLER_106_247
*1222 FILLER_106_250
*1223 FILLER_106_2515
*1224 FILLER_106_2519
*1225 FILLER_106_2522
*1226 FILLER_106_2586
*1227 FILLER_106_2590
*1228 FILLER_106_2593
*1229 FILLER_106_2625
*1230 FILLER_106_2641
*1231 FILLER_106_2649
*1232 FILLER_106_2651
*1233 FILLER_106_314
*1234 FILLER_106_318
*1235 FILLER_106_321
*1236 FILLER_106_34
*1237 FILLER_106_37
*1238 FILLER_106_385
*1239 FILLER_106_389
*1240 FILLER_106_392
*1241 FILLER_106_456
*1242 FILLER_106_460
*1243 FILLER_106_463
*1244 FILLER_106_527
*1245 FILLER_106_531
*1246 FILLER_106_534
*1247 FILLER_106_598
*1248 FILLER_106_602
*1249 FILLER_106_605
*1250 FILLER_106_669
*1251 FILLER_106_673
*1252 FILLER_106_676
*1253 FILLER_106_740
*1254 FILLER_106_744
*1255 FILLER_106_747
*1256 FILLER_106_811
*1257 FILLER_106_815
*1258 FILLER_106_818
*1259 FILLER_106_882
*1260 FILLER_106_886
*1261 FILLER_106_889
*1262 FILLER_106_953
*1263 FILLER_106_957
*1264 FILLER_106_960
*1265 FILLER_107_1060
*1266 FILLER_107_1064
*1267 FILLER_107_1067
*1268 FILLER_107_1131
*1269 FILLER_107_1135
*1270 FILLER_107_1138
*1271 FILLER_107_1202
*1272 FILLER_107_1206
*1273 FILLER_107_1209
*1274 FILLER_107_1273
*1275 FILLER_107_1277
*1276 FILLER_107_1280
*1277 FILLER_107_1344
*1278 FILLER_107_1348
*1279 FILLER_107_1351
*1280 FILLER_107_137
*1281 FILLER_107_141
*1282 FILLER_107_1415
*1283 FILLER_107_1419
*1284 FILLER_107_1422
*1285 FILLER_107_144
*1286 FILLER_107_1486
*1287 FILLER_107_1490
*1288 FILLER_107_1493
*1289 FILLER_107_1557
*1290 FILLER_107_1561
*1291 FILLER_107_1564
*1292 FILLER_107_1628
*1293 FILLER_107_1632
*1294 FILLER_107_1635
*1295 FILLER_107_1699
*1296 FILLER_107_1703
*1297 FILLER_107_1706
*1298 FILLER_107_1770
*1299 FILLER_107_1774
*1300 FILLER_107_1777
*1301 FILLER_107_1841
*1302 FILLER_107_1845
*1303 FILLER_107_1848
*1304 FILLER_107_1912
*1305 FILLER_107_1916
*1306 FILLER_107_1919
*1307 FILLER_107_1983
*1308 FILLER_107_1987
*1309 FILLER_107_1990
*1310 FILLER_107_2
*1311 FILLER_107_2054
*1312 FILLER_107_2058
*1313 FILLER_107_2061
*1314 FILLER_107_208
*1315 FILLER_107_212
*1316 FILLER_107_2125
*1317 FILLER_107_2129
*1318 FILLER_107_2132
*1319 FILLER_107_215
*1320 FILLER_107_2196
*1321 FILLER_107_2200
*1322 FILLER_107_2203
*1323 FILLER_107_2267
*1324 FILLER_107_2271
*1325 FILLER_107_2274
*1326 FILLER_107_2338
*1327 FILLER_107_2342
*1328 FILLER_107_2345
*1329 FILLER_107_2409
*1330 FILLER_107_2413
*1331 FILLER_107_2416
*1332 FILLER_107_2480
*1333 FILLER_107_2484
*1334 FILLER_107_2487
*1335 FILLER_107_2551
*1336 FILLER_107_2555
*1337 FILLER_107_2558
*1338 FILLER_107_2622
*1339 FILLER_107_2626
*1340 FILLER_107_2629
*1341 FILLER_107_2645
*1342 FILLER_107_2649
*1343 FILLER_107_2651
*1344 FILLER_107_279
*1345 FILLER_107_283
*1346 FILLER_107_286
*1347 FILLER_107_350
*1348 FILLER_107_354
*1349 FILLER_107_357
*1350 FILLER_107_421
*1351 FILLER_107_425
*1352 FILLER_107_428
*1353 FILLER_107_492
*1354 FILLER_107_496
*1355 FILLER_107_499
*1356 FILLER_107_563
*1357 FILLER_107_567
*1358 FILLER_107_570
*1359 FILLER_107_634
*1360 FILLER_107_638
*1361 FILLER_107_641
*1362 FILLER_107_66
*1363 FILLER_107_70
*1364 FILLER_107_705
*1365 FILLER_107_709
*1366 FILLER_107_712
*1367 FILLER_107_73
*1368 FILLER_107_776
*1369 FILLER_107_780
*1370 FILLER_107_783
*1371 FILLER_107_847
*1372 FILLER_107_851
*1373 FILLER_107_854
*1374 FILLER_107_918
*1375 FILLER_107_922
*1376 FILLER_107_925
*1377 FILLER_107_989
*1378 FILLER_107_993
*1379 FILLER_107_996
*1380 FILLER_108_101
*1381 FILLER_108_1024
*1382 FILLER_108_1028
*1383 FILLER_108_1031
*1384 FILLER_108_105
*1385 FILLER_108_108
*1386 FILLER_108_1095
*1387 FILLER_108_1099
*1388 FILLER_108_1102
*1389 FILLER_108_1166
*1390 FILLER_108_1170
*1391 FILLER_108_1173
*1392 FILLER_108_1237
*1393 FILLER_108_1241
*1394 FILLER_108_1244
*1395 FILLER_108_1308
*1396 FILLER_108_1312
*1397 FILLER_108_1315
*1398 FILLER_108_1379
*1399 FILLER_108_1383
*1400 FILLER_108_1386
*1401 FILLER_108_1450
*1402 FILLER_108_1454
*1403 FILLER_108_1457
*1404 FILLER_108_1521
*1405 FILLER_108_1525
*1406 FILLER_108_1528
*1407 FILLER_108_1592
*1408 FILLER_108_1596
*1409 FILLER_108_1599
*1410 FILLER_108_1663
*1411 FILLER_108_1667
*1412 FILLER_108_1670
*1413 FILLER_108_172
*1414 FILLER_108_1734
*1415 FILLER_108_1738
*1416 FILLER_108_1741
*1417 FILLER_108_176
*1418 FILLER_108_179
*1419 FILLER_108_1805
*1420 FILLER_108_1809
*1421 FILLER_108_1812
*1422 FILLER_108_1876
*1423 FILLER_108_1880
*1424 FILLER_108_1883
*1425 FILLER_108_1947
*1426 FILLER_108_1951
*1427 FILLER_108_1954
*1428 FILLER_108_2
*1429 FILLER_108_2018
*1430 FILLER_108_2022
*1431 FILLER_108_2025
*1432 FILLER_108_2089
*1433 FILLER_108_2093
*1434 FILLER_108_2096
*1435 FILLER_108_2160
*1436 FILLER_108_2164
*1437 FILLER_108_2167
*1438 FILLER_108_2231
*1439 FILLER_108_2235
*1440 FILLER_108_2238
*1441 FILLER_108_2302
*1442 FILLER_108_2306
*1443 FILLER_108_2309
*1444 FILLER_108_2373
*1445 FILLER_108_2377
*1446 FILLER_108_2380
*1447 FILLER_108_243
*1448 FILLER_108_2444
*1449 FILLER_108_2448
*1450 FILLER_108_2451
*1451 FILLER_108_247
*1452 FILLER_108_250
*1453 FILLER_108_2515
*1454 FILLER_108_2519
*1455 FILLER_108_2522
*1456 FILLER_108_2586
*1457 FILLER_108_2590
*1458 FILLER_108_2593
*1459 FILLER_108_2625
*1460 FILLER_108_2641
*1461 FILLER_108_2649
*1462 FILLER_108_2651
*1463 FILLER_108_314
*1464 FILLER_108_318
*1465 FILLER_108_321
*1466 FILLER_108_34
*1467 FILLER_108_37
*1468 FILLER_108_385
*1469 FILLER_108_389
*1470 FILLER_108_392
*1471 FILLER_108_456
*1472 FILLER_108_460
*1473 FILLER_108_463
*1474 FILLER_108_527
*1475 FILLER_108_531
*1476 FILLER_108_534