*SPEF "ieee 1481-1999"
*DESIGN "cntr_example"
*DATE "11:11:11 Fri 11 11, 1111"
*VENDOR "OpenRCX"
*PROGRAM "Parallel Extraction"
*VERSION "1.0"
*DESIGN_FLOW "NAME_SCOPE LOCAL" "PIN_CAP NONE"
*DIVIDER /
*DELIMITER :
*BUS_DELIMITER []
*T_UNIT 1 NS
*C_UNIT 1 PF
*R_UNIT 1 OHM
*L_UNIT 1 HENRY

*NAME_MAP
*1 io_out[0]
*2 io_out[10]
*3 io_out[11]
*4 io_out[12]
*5 io_out[13]
*6 io_out[14]
*7 io_out[15]
*8 io_out[16]
*9 io_out[17]
*10 io_out[18]
*11 io_out[19]
*12 io_out[1]
*13 net27
*14 net28
*15 net29
*16 net30
*17 net31
*18 net32
*19 net33
*20 net34
*21 net35
*22 net36
*23 io_out[2]
*24 net37
*25 net38
*26 net39
*27 net40
*28 net41
*29 net42
*30 net43
*31 net44
*32 io_out[3]
*33 io_out[4]
*34 io_out[5]
*35 io_out[6]
*36 io_out[7]
*37 io_out[8]
*38 io_out[9]
*41 wb_clk_i
*42 wb_rst_i
*43 _000_
*44 _001_
*45 _002_
*46 _003_
*47 _004_
*48 _005_
*49 _006_
*50 _007_
*51 _008_
*52 _009_
*53 _010_
*54 _011_
*55 _012_
*56 _013_
*57 _014_
*58 _015_
*59 _016_
*60 _017_
*61 _018_
*62 _019_
*63 _020_
*64 _021_
*65 _022_
*66 _023_
*67 _024_
*68 _025_
*69 _026_
*70 _027_
*71 _028_
*72 _029_
*73 _030_
*74 _031_
*75 _032_
*76 _033_
*77 _034_
*78 _035_
*79 _036_
*80 _037_
*81 _038_
*82 _039_
*83 _040_
*84 _041_
*85 _042_
*86 _043_
*87 _044_
*88 _045_
*89 _046_
*90 _047_
*91 _048_
*92 _049_
*93 _050_
*94 _051_
*95 _052_
*96 _053_
*97 _054_
*98 _055_
*99 clknet_0_wb_clk_i
*100 clknet_1_0__leaf_wb_clk_i
*101 clknet_1_1__leaf_wb_clk_i
*102 net1
*103 net10
*104 net11
*105 net12
*106 net13
*107 net14
*108 net15
*109 net16
*110 net17
*111 net18
*112 net19
*113 net2
*114 net20
*115 net21
*116 net22
*117 net23
*118 net24
*119 net25
*120 net26
*121 net3
*122 net4
*123 net5
*124 net6
*125 net7
*126 net8
*127 net9
*128 ANTENNA__056__I
*129 ANTENNA__057__I
*130 ANTENNA__058__I
*131 ANTENNA__060__A1
*132 ANTENNA__061__I
*133 ANTENNA__062__A1
*134 ANTENNA__062__A2
*135 ANTENNA__062__B
*136 ANTENNA__063__A1
*137 ANTENNA__063__A2
*138 ANTENNA__064__A1
*139 ANTENNA__064__A2
*140 ANTENNA__064__B
*141 ANTENNA__065__I
*142 ANTENNA__066__A1
*143 ANTENNA__066__A2
*144 ANTENNA__066__A3
*145 ANTENNA__067__A1
*146 ANTENNA__067__A2
*147 ANTENNA__070__A1
*148 ANTENNA__070__A2
*149 ANTENNA__072__I
*150 ANTENNA__073__A1
*151 ANTENNA__074__A1
*152 ANTENNA__074__A2
*153 ANTENNA__074__B
*154 ANTENNA__075__A1
*155 ANTENNA__075__A2
*156 ANTENNA__076__A1
*157 ANTENNA__076__A2
*158 ANTENNA__076__B
*159 ANTENNA__077__A1
*160 ANTENNA__077__A2
*161 ANTENNA__077__A3
*162 ANTENNA__078__A1
*163 ANTENNA__080__A1
*164 ANTENNA__081__A2
*165 ANTENNA__082__I
*166 ANTENNA__083__A1
*167 ANTENNA__084__A1
*168 ANTENNA__084__A2
*169 ANTENNA__084__B
*170 ANTENNA__085__A1
*171 ANTENNA__085__A2
*172 ANTENNA__086__A1
*173 ANTENNA__086__A2
*174 ANTENNA__086__B
*175 ANTENNA__087__A1
*176 ANTENNA__087__A2
*177 ANTENNA__087__A3
*178 ANTENNA__088__A1
*179 ANTENNA__090__A1
*180 ANTENNA__091__A2
*181 ANTENNA__092__I
*182 ANTENNA__093__A1
*183 ANTENNA__094__A1
*184 ANTENNA__094__A2
*185 ANTENNA__094__B
*186 ANTENNA__095__A1
*187 ANTENNA__095__A2
*188 ANTENNA__096__A1
*189 ANTENNA__096__A2
*190 ANTENNA__096__B
*191 ANTENNA__097__A1
*192 ANTENNA__097__A2
*193 ANTENNA__097__A3
*194 ANTENNA__098__A1
*195 ANTENNA__100__A1
*196 ANTENNA__102__I
*197 ANTENNA__103__A1
*198 ANTENNA__104__A1
*199 ANTENNA__104__A2
*200 ANTENNA__104__B
*201 ANTENNA__105__A1
*202 ANTENNA__105__A2
*203 ANTENNA__106__A1
*204 ANTENNA__106__A2
*205 ANTENNA__106__B
*206 ANTENNA__107__A1
*207 ANTENNA__107__A2
*208 ANTENNA__107__A3
*209 ANTENNA__108__A1
*210 ANTENNA__110__A1
*211 ANTENNA__112__CLK
*212 ANTENNA__112__D
*213 ANTENNA__113__D
*214 ANTENNA__114__D
*215 ANTENNA__115__CLK
*216 ANTENNA__115__D
*217 ANTENNA__116__D
*218 ANTENNA__117__CLK
*219 ANTENNA__117__D
*220 ANTENNA__118__CLK
*221 ANTENNA__118__D
*222 ANTENNA__119__D
*223 ANTENNA__120__D
*224 ANTENNA__121__CLK
*225 ANTENNA__121__D
*226 ANTENNA__122__CLK
*227 ANTENNA__122__D
*228 ANTENNA__123__D
*229 ANTENNA__124__CLK
*230 ANTENNA__124__D
*231 ANTENNA__125__D
*232 ANTENNA__126__CLK
*233 ANTENNA__126__D
*234 ANTENNA__127__D
*235 ANTENNA__128__CLK
*236 ANTENNA__128__D
*237 ANTENNA__129__D
*238 ANTENNA__130__D
*239 ANTENNA__131__D
*240 ANTENNA_clkbuf_0_wb_clk_i_I
*241 ANTENNA_fanout22_I
*242 ANTENNA_fanout23_I
*243 ANTENNA_fanout24_I
*244 ANTENNA_fanout25_I
*245 ANTENNA_fanout26_I
*246 ANTENNA_input1_I
*247 ANTENNA_output10_I
*248 ANTENNA_output11_I
*249 ANTENNA_output12_I
*250 ANTENNA_output13_I
*251 ANTENNA_output14_I
*252 ANTENNA_output15_I
*253 ANTENNA_output16_I
*254 ANTENNA_output17_I
*255 ANTENNA_output18_I
*256 ANTENNA_output19_I
*257 ANTENNA_output20_I
*258 ANTENNA_output21_I
*259 ANTENNA_output2_I
*260 ANTENNA_output3_I
*261 ANTENNA_output4_I
*262 ANTENNA_output5_I
*263 ANTENNA_output6_I
*264 ANTENNA_output7_I
*265 ANTENNA_output8_I
*266 ANTENNA_output9_I
*267 FILLER_0_1014
*268 FILLER_0_1017
*269 FILLER_0_104
*270 FILLER_0_1049
*271 FILLER_0_1052
*272 FILLER_0_107
*273 FILLER_0_1084
*274 FILLER_0_1087
*275 FILLER_0_1119
*276 FILLER_0_1122
*277 FILLER_0_1154
*278 FILLER_0_1157
*279 FILLER_0_1189
*280 FILLER_0_1192
*281 FILLER_0_1224
*282 FILLER_0_1227
*283 FILLER_0_1259
*284 FILLER_0_1262
*285 FILLER_0_1294
*286 FILLER_0_1297
*287 FILLER_0_1329
*288 FILLER_0_1332
*289 FILLER_0_1364
*290 FILLER_0_1367
*291 FILLER_0_139
*292 FILLER_0_1399
*293 FILLER_0_1402
*294 FILLER_0_142
*295 FILLER_0_1434
*296 FILLER_0_1437
*297 FILLER_0_1469
*298 FILLER_0_1472
*299 FILLER_0_1504
*300 FILLER_0_1507
*301 FILLER_0_1539
*302 FILLER_0_1542
*303 FILLER_0_1574
*304 FILLER_0_1577
*305 FILLER_0_1609
*306 FILLER_0_1612
*307 FILLER_0_1644
*308 FILLER_0_1647
*309 FILLER_0_1679
*310 FILLER_0_1682
*311 FILLER_0_1714
*312 FILLER_0_1717
*313 FILLER_0_174
*314 FILLER_0_1749
*315 FILLER_0_1752
*316 FILLER_0_177
*317 FILLER_0_1784
*318 FILLER_0_1787
*319 FILLER_0_1819
*320 FILLER_0_1822
*321 FILLER_0_1854
*322 FILLER_0_1857
*323 FILLER_0_1889
*324 FILLER_0_1892
*325 FILLER_0_1924
*326 FILLER_0_1927
*327 FILLER_0_1959
*328 FILLER_0_1962
*329 FILLER_0_1978
*330 FILLER_0_1986
*331 FILLER_0_1990
*332 FILLER_0_1994
*333 FILLER_0_1997
*334 FILLER_0_2
*335 FILLER_0_2006
*336 FILLER_0_2022
*337 FILLER_0_2032
*338 FILLER_0_2064
*339 FILLER_0_2067
*340 FILLER_0_209
*341 FILLER_0_2099
*342 FILLER_0_2102
*343 FILLER_0_212
*344 FILLER_0_2134
*345 FILLER_0_2137
*346 FILLER_0_2169
*347 FILLER_0_2172
*348 FILLER_0_2204
*349 FILLER_0_2207
*350 FILLER_0_2239
*351 FILLER_0_2242
*352 FILLER_0_2274
*353 FILLER_0_2277
*354 FILLER_0_2309
*355 FILLER_0_2312
*356 FILLER_0_2344
*357 FILLER_0_2347
*358 FILLER_0_2379
*359 FILLER_0_2382
*360 FILLER_0_2414
*361 FILLER_0_2417
*362 FILLER_0_244
*363 FILLER_0_2449
*364 FILLER_0_2452
*365 FILLER_0_247
*366 FILLER_0_2484
*367 FILLER_0_2487
*368 FILLER_0_2519
*369 FILLER_0_2522
*370 FILLER_0_2554
*371 FILLER_0_2557
*372 FILLER_0_2589
*373 FILLER_0_2592
*374 FILLER_0_2624
*375 FILLER_0_2627
*376 FILLER_0_2643
*377 FILLER_0_2651
*378 FILLER_0_279
*379 FILLER_0_282
*380 FILLER_0_314
*381 FILLER_0_317
*382 FILLER_0_34
*383 FILLER_0_349
*384 FILLER_0_352
*385 FILLER_0_37
*386 FILLER_0_384
*387 FILLER_0_387
*388 FILLER_0_419
*389 FILLER_0_422
*390 FILLER_0_454
*391 FILLER_0_457
*392 FILLER_0_489
*393 FILLER_0_492
*394 FILLER_0_524
*395 FILLER_0_527
*396 FILLER_0_559
*397 FILLER_0_562
*398 FILLER_0_594
*399 FILLER_0_597
*400 FILLER_0_629
*401 FILLER_0_632
*402 FILLER_0_634
*403 FILLER_0_664
*404 FILLER_0_667
*405 FILLER_0_669
*406 FILLER_0_69
*407 FILLER_0_699
*408 FILLER_0_702
*409 FILLER_0_705
*410 FILLER_0_72
*411 FILLER_0_721
*412 FILLER_0_729
*413 FILLER_0_733
*414 FILLER_0_737
*415 FILLER_0_769
*416 FILLER_0_772
*417 FILLER_0_804
*418 FILLER_0_807
*419 FILLER_0_839
*420 FILLER_0_842
*421 FILLER_0_874
*422 FILLER_0_877
*423 FILLER_0_909
*424 FILLER_0_912
*425 FILLER_0_944
*426 FILLER_0_947
*427 FILLER_0_979
*428 FILLER_0_982
*429 FILLER_100_101
*430 FILLER_100_1024
*431 FILLER_100_1028
*432 FILLER_100_1031
*433 FILLER_100_105
*434 FILLER_100_108
*435 FILLER_100_1095
*436 FILLER_100_1099
*437 FILLER_100_1102
*438 FILLER_100_1166
*439 FILLER_100_1170
*440 FILLER_100_1173
*441 FILLER_100_1237
*442 FILLER_100_1241
*443 FILLER_100_1244
*444 FILLER_100_1308
*445 FILLER_100_1312
*446 FILLER_100_1315
*447 FILLER_100_1379
*448 FILLER_100_1383
*449 FILLER_100_1386
*450 FILLER_100_1450
*451 FILLER_100_1454
*452 FILLER_100_1457
*453 FILLER_100_1521
*454 FILLER_100_1525
*455 FILLER_100_1528
*456 FILLER_100_1592
*457 FILLER_100_1596
*458 FILLER_100_1599
*459 FILLER_100_1663
*460 FILLER_100_1667
*461 FILLER_100_1670
*462 FILLER_100_172
*463 FILLER_100_1734
*464 FILLER_100_1738
*465 FILLER_100_1741
*466 FILLER_100_176
*467 FILLER_100_179
*468 FILLER_100_1805
*469 FILLER_100_1809
*470 FILLER_100_1812
*471 FILLER_100_1876
*472 FILLER_100_1880
*473 FILLER_100_1883
*474 FILLER_100_1947
*475 FILLER_100_1951
*476 FILLER_100_1954
*477 FILLER_100_2
*478 FILLER_100_2018
*479 FILLER_100_2022
*480 FILLER_100_2025
*481 FILLER_100_2089
*482 FILLER_100_2093
*483 FILLER_100_2096
*484 FILLER_100_2160
*485 FILLER_100_2164
*486 FILLER_100_2167
*487 FILLER_100_2231
*488 FILLER_100_2235
*489 FILLER_100_2238
*490 FILLER_100_2302
*491 FILLER_100_2306
*492 FILLER_100_2309
*493 FILLER_100_2373
*494 FILLER_100_2377
*495 FILLER_100_2380
*496 FILLER_100_243
*497 FILLER_100_2444
*498 FILLER_100_2448
*499 FILLER_100_2451
*500 FILLER_100_247
*501 FILLER_100_250
*502 FILLER_100_2515
*503 FILLER_100_2519
*504 FILLER_100_2522
*505 FILLER_100_2586
*506 FILLER_100_2590
*507 FILLER_100_2593
*508 FILLER_100_2625
*509 FILLER_100_2641
*510 FILLER_100_2649
*511 FILLER_100_2651
*512 FILLER_100_314
*513 FILLER_100_318
*514 FILLER_100_321
*515 FILLER_100_34
*516 FILLER_100_37
*517 FILLER_100_385
*518 FILLER_100_389
*519 FILLER_100_392
*520 FILLER_100_456
*521 FILLER_100_460
*522 FILLER_100_463
*523 FILLER_100_527
*524 FILLER_100_531
*525 FILLER_100_534
*526 FILLER_100_598
*527 FILLER_100_602
*528 FILLER_100_605
*529 FILLER_100_669
*530 FILLER_100_673
*531 FILLER_100_676
*532 FILLER_100_740
*533 FILLER_100_744
*534 FILLER_100_747
*535 FILLER_100_811
*536 FILLER_100_815
*537 FILLER_100_818
*538 FILLER_100_882
*539 FILLER_100_886
*540 FILLER_100_889
*541 FILLER_100_953
*542 FILLER_100_957
*543 FILLER_100_960
*544 FILLER_101_1060
*545 FILLER_101_1064
*546 FILLER_101_1067
*547 FILLER_101_1131
*548 FILLER_101_1135
*549 FILLER_101_1138
*550 FILLER_101_1202
*551 FILLER_101_1206
*552 FILLER_101_1209
*553 FILLER_101_1273
*554 FILLER_101_1277
*555 FILLER_101_1280
*556 FILLER_101_1344
*557 FILLER_101_1348
*558 FILLER_101_1351
*559 FILLER_101_137
*560 FILLER_101_141
*561 FILLER_101_1415
*562 FILLER_101_1419
*563 FILLER_101_1422
*564 FILLER_101_144
*565 FILLER_101_1486
*566 FILLER_101_1490
*567 FILLER_101_1493
*568 FILLER_101_1557
*569 FILLER_101_1561
*570 FILLER_101_1564
*571 FILLER_101_1628
*572 FILLER_101_1632
*573 FILLER_101_1635
*574 FILLER_101_1699
*575 FILLER_101_1703
*576 FILLER_101_1706
*577 FILLER_101_1770
*578 FILLER_101_1774
*579 FILLER_101_1777
*580 FILLER_101_1841
*581 FILLER_101_1845
*582 FILLER_101_1848
*583 FILLER_101_1912
*584 FILLER_101_1916
*585 FILLER_101_1919
*586 FILLER_101_1983
*587 FILLER_101_1987
*588 FILLER_101_1990
*589 FILLER_101_2
*590 FILLER_101_2054
*591 FILLER_101_2058
*592 FILLER_101_2061
*593 FILLER_101_208
*594 FILLER_101_212
*595 FILLER_101_2125
*596 FILLER_101_2129
*597 FILLER_101_2132
*598 FILLER_101_215
*599 FILLER_101_2196
*600 FILLER_101_2200
*601 FILLER_101_2203
*602 FILLER_101_2267
*603 FILLER_101_2271
*604 FILLER_101_2274
*605 FILLER_101_2338
*606 FILLER_101_2342
*607 FILLER_101_2345
*608 FILLER_101_2409
*609 FILLER_101_2413
*610 FILLER_101_2416
*611 FILLER_101_2480
*612 FILLER_101_2484
*613 FILLER_101_2487
*614 FILLER_101_2551
*615 FILLER_101_2555
*616 FILLER_101_2558
*617 FILLER_101_2622
*618 FILLER_101_2626
*619 FILLER_101_2629
*620 FILLER_101_2645
*621 FILLER_101_2649
*622 FILLER_101_2651
*623 FILLER_101_279
*624 FILLER_101_283
*625 FILLER_101_286
*626 FILLER_101_350
*627 FILLER_101_354
*628 FILLER_101_357
*629 FILLER_101_421
*630 FILLER_101_425
*631 FILLER_101_428
*632 FILLER_101_492
*633 FILLER_101_496
*634 FILLER_101_499
*635 FILLER_101_563
*636 FILLER_101_567
*637 FILLER_101_570
*638 FILLER_101_634
*639 FILLER_101_638
*640 FILLER_101_641
*641 FILLER_101_66
*642 FILLER_101_70
*643 FILLER_101_705
*644 FILLER_101_709
*645 FILLER_101_712
*646 FILLER_101_73
*647 FILLER_101_776
*648 FILLER_101_780
*649 FILLER_101_783
*650 FILLER_101_847
*651 FILLER_101_851
*652 FILLER_101_854
*653 FILLER_101_918
*654 FILLER_101_922
*655 FILLER_101_925
*656 FILLER_101_989
*657 FILLER_101_993
*658 FILLER_101_996
*659 FILLER_102_101
*660 FILLER_102_1024
*661 FILLER_102_1028
*662 FILLER_102_1031
*663 FILLER_102_105
*664 FILLER_102_108
*665 FILLER_102_1095
*666 FILLER_102_1099
*667 FILLER_102_1102
*668 FILLER_102_1166
*669 FILLER_102_1170
*670 FILLER_102_1173
*671 FILLER_102_1237
*672 FILLER_102_1241
*673 FILLER_102_1244
*674 FILLER_102_1308
*675 FILLER_102_1312
*676 FILLER_102_1315
*677 FILLER_102_1379
*678 FILLER_102_1383
*679 FILLER_102_1386
*680 FILLER_102_1450
*681 FILLER_102_1454
*682 FILLER_102_1457
*683 FILLER_102_1521
*684 FILLER_102_1525
*685 FILLER_102_1528
*686 FILLER_102_1592
*687 FILLER_102_1596
*688 FILLER_102_1599
*689 FILLER_102_1663
*690 FILLER_102_1667
*691 FILLER_102_1670
*692 FILLER_102_172
*693 FILLER_102_1734
*694 FILLER_102_1738
*695 FILLER_102_1741
*696 FILLER_102_176
*697 FILLER_102_179
*698 FILLER_102_1805
*699 FILLER_102_1809
*700 FILLER_102_1812
*701 FILLER_102_1876
*702 FILLER_102_1880
*703 FILLER_102_1883
*704 FILLER_102_1947
*705 FILLER_102_1951
*706 FILLER_102_1954
*707 FILLER_102_2
*708 FILLER_102_2018
*709 FILLER_102_2022
*710 FILLER_102_2025
*711 FILLER_102_2089
*712 FILLER_102_2093
*713 FILLER_102_2096
*714 FILLER_102_2160
*715 FILLER_102_2164
*716 FILLER_102_2167
*717 FILLER_102_2231
*718 FILLER_102_2235
*719 FILLER_102_2238
*720 FILLER_102_2302
*721 FILLER_102_2306
*722 FILLER_102_2309
*723 FILLER_102_2373
*724 FILLER_102_2377
*725 FILLER_102_2380
*726 FILLER_102_243
*727 FILLER_102_2444
*728 FILLER_102_2448
*729 FILLER_102_2451
*730 FILLER_102_247
*731 FILLER_102_250
*732 FILLER_102_2515
*733 FILLER_102_2519
*734 FILLER_102_2522
*735 FILLER_102_2586
*736 FILLER_102_2590
*737 FILLER_102_2593
*738 FILLER_102_2625
*739 FILLER_102_2641
*740 FILLER_102_2649
*741 FILLER_102_2651
*742 FILLER_102_314
*743 FILLER_102_318
*744 FILLER_102_321
*745 FILLER_102_34
*746 FILLER_102_37
*747 FILLER_102_385
*748 FILLER_102_389
*749 FILLER_102_392
*750 FILLER_102_456
*751 FILLER_102_460
*752 FILLER_102_463
*753 FILLER_102_527
*754 FILLER_102_531
*755 FILLER_102_534
*756 FILLER_102_598
*757 FILLER_102_602
*758 FILLER_102_605
*759 FILLER_102_669
*760 FILLER_102_673
*761 FILLER_102_676
*762 FILLER_102_740
*763 FILLER_102_744
*764 FILLER_102_747
*765 FILLER_102_811
*766 FILLER_102_815
*767 FILLER_102_818
*768 FILLER_102_882
*769 FILLER_102_886
*770 FILLER_102_889
*771 FILLER_102_953
*772 FILLER_102_957
*773 FILLER_102_960
*774 FILLER_103_1060
*775 FILLER_103_1064
*776 FILLER_103_1067
*777 FILLER_103_1131
*778 FILLER_103_1135
*779 FILLER_103_1138
*780 FILLER_103_1202
*781 FILLER_103_1206
*782 FILLER_103_1209
*783 FILLER_103_1273
*784 FILLER_103_1277
*785 FILLER_103_1280
*786 FILLER_103_1344
*787 FILLER_103_1348
*788 FILLER_103_1351
*789 FILLER_103_137
*790 FILLER_103_141
*791 FILLER_103_1415
*792 FILLER_103_1419
*793 FILLER_103_1422
*794 FILLER_103_144
*795 FILLER_103_1486
*796 FILLER_103_1490
*797 FILLER_103_1493
*798 FILLER_103_1557
*799 FILLER_103_1561
*800 FILLER_103_1564
*801 FILLER_103_1628
*802 FILLER_103_1632
*803 FILLER_103_1635
*804 FILLER_103_1699
*805 FILLER_103_1703
*806 FILLER_103_1706
*807 FILLER_103_1770
*808 FILLER_103_1774
*809 FILLER_103_1777
*810 FILLER_103_1841
*811 FILLER_103_1845
*812 FILLER_103_1848
*813 FILLER_103_1912
*814 FILLER_103_1916
*815 FILLER_103_1919
*816 FILLER_103_1983
*817 FILLER_103_1987
*818 FILLER_103_1990
*819 FILLER_103_2
*820 FILLER_103_2054
*821 FILLER_103_2058
*822 FILLER_103_2061
*823 FILLER_103_208
*824 FILLER_103_212
*825 FILLER_103_2125
*826 FILLER_103_2129
*827 FILLER_103_2132
*828 FILLER_103_215
*829 FILLER_103_2196
*830 FILLER_103_2200
*831 FILLER_103_2203
*832 FILLER_103_2267
*833 FILLER_103_2271
*834 FILLER_103_2274
*835 FILLER_103_2338
*836 FILLER_103_2342
*837 FILLER_103_2345
*838 FILLER_103_2409
*839 FILLER_103_2413
*840 FILLER_103_2416
*841 FILLER_103_2480
*842 FILLER_103_2484
*843 FILLER_103_2487
*844 FILLER_103_2551
*845 FILLER_103_2555
*846 FILLER_103_2558
*847 FILLER_103_2622
*848 FILLER_103_2626
*849 FILLER_103_2629
*850 FILLER_103_2645
*851 FILLER_103_2649
*852 FILLER_103_2651
*853 FILLER_103_279
*854 FILLER_103_283
*855 FILLER_103_286
*856 FILLER_103_350
*857 FILLER_103_354
*858 FILLER_103_357
*859 FILLER_103_421
*860 FILLER_103_425
*861 FILLER_103_428
*862 FILLER_103_492
*863 FILLER_103_496
*864 FILLER_103_499
*865 FILLER_103_563
*866 FILLER_103_567
*867 FILLER_103_570
*868 FILLER_103_634
*869 FILLER_103_638
*870 FILLER_103_641
*871 FILLER_103_66
*872 FILLER_103_70
*873 FILLER_103_705
*874 FILLER_103_709
*875 FILLER_103_712
*876 FILLER_103_73
*877 FILLER_103_776
*878 FILLER_103_780
*879 FILLER_103_783
*880 FILLER_103_847
*881 FILLER_103_851
*882 FILLER_103_854
*883 FILLER_103_918
*884 FILLER_103_922
*885 FILLER_103_925
*886 FILLER_103_989
*887 FILLER_103_993
*888 FILLER_103_996
*889 FILLER_104_101
*890 FILLER_104_1024
*891 FILLER_104_1028
*892 FILLER_104_1031
*893 FILLER_104_105
*894 FILLER_104_108
*895 FILLER_104_1095
*896 FILLER_104_1099
*897 FILLER_104_1102
*898 FILLER_104_1166
*899 FILLER_104_1170
*900 FILLER_104_1173
*901 FILLER_104_1237
*902 FILLER_104_1241
*903 FILLER_104_1244
*904 FILLER_104_1308
*905 FILLER_104_1312
*906 FILLER_104_1315
*907 FILLER_104_1379
*908 FILLER_104_1383
*909 FILLER_104_1386
*910 FILLER_104_1450
*911 FILLER_104_1454
*912 FILLER_104_1457
*913 FILLER_104_1521
*914 FILLER_104_1525
*915 FILLER_104_1528
*916 FILLER_104_1592
*917 FILLER_104_1596
*918 FILLER_104_1599
*919 FILLER_104_1663
*920 FILLER_104_1667
*921 FILLER_104_1670
*922 FILLER_104_172
*923 FILLER_104_1734
*924 FILLER_104_1738
*925 FILLER_104_1741
*926 FILLER_104_176
*927 FILLER_104_179
*928 FILLER_104_1805
*929 FILLER_104_1809
*930 FILLER_104_1812
*931 FILLER_104_1876
*932 FILLER_104_1880
*933 FILLER_104_1883
*934 FILLER_104_1947
*935 FILLER_104_1951
*936 FILLER_104_1954
*937 FILLER_104_2
*938 FILLER_104_2018
*939 FILLER_104_2022
*940 FILLER_104_2025
*941 FILLER_104_2089
*942 FILLER_104_2093
*943 FILLER_104_2096
*944 FILLER_104_2160
*945 FILLER_104_2164
*946 FILLER_104_2167
*947 FILLER_104_2231
*948 FILLER_104_2235
*949 FILLER_104_2238
*950 FILLER_104_2302
*951 FILLER_104_2306
*952 FILLER_104_2309
*953 FILLER_104_2373
*954 FILLER_104_2377
*955 FILLER_104_2380
*956 FILLER_104_243
*957 FILLER_104_2444
*958 FILLER_104_2448
*959 FILLER_104_2451
*960 FILLER_104_247
*961 FILLER_104_250
*962 FILLER_104_2515
*963 FILLER_104_2519
*964 FILLER_104_2522
*965 FILLER_104_2586
*966 FILLER_104_2590
*967 FILLER_104_2593
*968 FILLER_104_2625
*969 FILLER_104_2641
*970 FILLER_104_2649
*971 FILLER_104_2651
*972 FILLER_104_314
*973 FILLER_104_318
*974 FILLER_104_321
*975 FILLER_104_34
*976 FILLER_104_37
*977 FILLER_104_385
*978 FILLER_104_389
*979 FILLER_104_392
*980 FILLER_104_456
*981 FILLER_104_460
*982 FILLER_104_463
*983 FILLER_104_527
*984 FILLER_104_531
*985 FILLER_104_534
*986 FILLER_104_598
*987 FILLER_104_602
*988 FILLER_104_605
*989 FILLER_104_669
*990 FILLER_104_673
*991 FILLER_104_676
*992 FILLER_104_740
*993 FILLER_104_744
*994 FILLER_104_747
*995 FILLER_104_811
*996 FILLER_104_815
*997 FILLER_104_818
*998 FILLER_104_882
*999 FILLER_104_886
*1000 FILLER_104_889
*1001 FILLER_104_953
*1002 FILLER_104_957
*1003 FILLER_104_960
*1004 FILLER_105_1060
*1005 FILLER_105_1064
*1006 FILLER_105_1067
*1007 FILLER_105_1131
*1008 FILLER_105_1135
*1009 FILLER_105_1138
*1010 FILLER_105_1202
*1011 FILLER_105_1206
*1012 FILLER_105_1209
*1013 FILLER_105_1273
*1014 FILLER_105_1277
*1015 FILLER_105_1280
*1016 FILLER_105_1344
*1017 FILLER_105_1348
*1018 FILLER_105_1351
*1019 FILLER_105_137
*1020 FILLER_105_141
*1021 FILLER_105_1415
*1022 FILLER_105_1419
*1023 FILLER_105_1422
*1024 FILLER_105_144
*1025 FILLER_105_1486
*1026 FILLER_105_1490
*1027 FILLER_105_1493
*1028 FILLER_105_1557
*1029 FILLER_105_1561
*1030 FILLER_105_1564
*1031 FILLER_105_1628
*1032 FILLER_105_1632
*1033 FILLER_105_1635
*1034 FILLER_105_1699
*1035 FILLER_105_1703
*1036 FILLER_105_1706
*1037 FILLER_105_1770
*1038 FILLER_105_1774
*1039 FILLER_105_1777
*1040 FILLER_105_1841
*1041 FILLER_105_1845
*1042 FILLER_105_1848
*1043 FILLER_105_1912
*1044 FILLER_105_1916
*1045 FILLER_105_1919
*1046 FILLER_105_1983
*1047 FILLER_105_1987
*1048 FILLER_105_1990
*1049 FILLER_105_2
*1050 FILLER_105_2054
*1051 FILLER_105_2058
*1052 FILLER_105_2061
*1053 FILLER_105_208
*1054 FILLER_105_212
*1055 FILLER_105_2125
*1056 FILLER_105_2129
*1057 FILLER_105_2132
*1058 FILLER_105_215
*1059 FILLER_105_2196
*1060 FILLER_105_2200
*1061 FILLER_105_2203
*1062 FILLER_105_2267
*1063 FILLER_105_2271
*1064 FILLER_105_2274
*1065 FILLER_105_2338
*1066 FILLER_105_2342
*1067 FILLER_105_2345
*1068 FILLER_105_2409
*1069 FILLER_105_2413
*1070 FILLER_105_2416
*1071 FILLER_105_2480
*1072 FILLER_105_2484
*1073 FILLER_105_2487
*1074 FILLER_105_2551
*1075 FILLER_105_2555
*1076 FILLER_105_2558
*1077 FILLER_105_2622
*1078 FILLER_105_2626
*1079 FILLER_105_2629
*1080 FILLER_105_2645
*1081 FILLER_105_2649
*1082 FILLER_105_2651
*1083 FILLER_105_279
*1084 FILLER_105_283
*1085 FILLER_105_286
*1086 FILLER_105_350
*1087 FILLER_105_354
*1088 FILLER_105_357
*1089 FILLER_105_421
*1090 FILLER_105_425
*1091 FILLER_105_428
*1092 FILLER_105_492
*1093 FILLER_105_496
*1094 FILLER_105_499
*1095 FILLER_105_563
*1096 FILLER_105_567
*1097 FILLER_105_570
*1098 FILLER_105_634
*1099 FILLER_105_638
*1100 FILLER_105_641
*1101 FILLER_105_66
*1102 FILLER_105_70
*1103 FILLER_105_705
*1104 FILLER_105_709
*1105 FILLER_105_712
*1106 FILLER_105_73
*1107 FILLER_105_776
*1108 FILLER_105_780
*1109 FILLER_105_783
*1110 FILLER_105_847
*1111 FILLER_105_851
*1112 FILLER_105_854
*1113 FILLER_105_918
*1114 FILLER_105_922
*1115 FILLER_105_925
*1116 FILLER_105_989
*1117 FILLER_105_993
*1118 FILLER_105_996
*1119 FILLER_106_101
*1120 FILLER_106_1024
*1121 FILLER_106_1028
*1122 FILLER_106_1031
*1123 FILLER_106_105
*1124 FILLER_106_108
*1125 FILLER_106_1095
*1126 FILLER_106_1099
*1127 FILLER_106_1102
*1128 FILLER_106_1166
*1129 FILLER_106_1170
*1130 FILLER_106_1173
*1131 FILLER_106_1237
*1132 FILLER_106_1241
*1133 FILLER_106_1244
*1134 FILLER_106_1308
*1135 FILLER_106_1312
*1136 FILLER_106_1315
*1137 FILLER_106_1379
*1138 FILLER_106_1383
*1139 FILLER_106_1386
*1140 FILLER_106_1450
*1141 FILLER_106_1454
*1142 FILLER_106_1457
*1143 FILLER_106_1521
*1144 FILLER_106_1525
*1145 FILLER_106_1528
*1146 FILLER_106_1592
*1147 FILLER_106_1596
*1148 FILLER_106_1599
*1149 FILLER_106_1663
*1150 FILLER_106_1667
*1151 FILLER_106_1670
*1152 FILLER_106_172
*1153 FILLER_106_1734
*1154 FILLER_106_1738
*1155 FILLER_106_1741
*1156 FILLER_106_176
*1157 FILLER_106_179
*1158 FILLER_106_1805
*1159 FILLER_106_1809
*1160 FILLER_106_1812
*1161 FILLER_106_1876
*1162 FILLER_106_1880
*1163 FILLER_106_1883
*1164 FILLER_106_1947
*1165 FILLER_106_1951
*1166 FILLER_106_1954
*1167 FILLER_106_2
*1168 FILLER_106_2018
*1169 FILLER_106_2022
*1170 FILLER_106_2025
*1171 FILLER_106_2089
*1172 FILLER_106_2093
*1173 FILLER_106_2096
*1174 FILLER_106_2160
*1175 FILLER_106_2164
*1176 FILLER_106_2167
*1177 FILLER_106_2231
*1178 FILLER_106_2235
*1179 FILLER_106_2238
*1180 FILLER_106_2302
*1181 FILLER_106_2306
*1182 FILLER_106_2309
*1183 FILLER_106_2373
*1184 FILLER_106_2377
*1185 FILLER_106_2380
*1186 FILLER_106_243
*1187 FILLER_106_2444
*1188 FILLER_106_2448
*1189 FILLER_106_2451
*1190 FILLER_106_247
*1191 FILLER_106_250
*1192 FILLER_106_2515
*1193 FILLER_106_2519
*1194 FILLER_106_2522
*1195 FILLER_106_2586
*1196 FILLER_106_2590
*1197 FILLER_106_2593
*1198 FILLER_106_2625
*1199 FILLER_106_2641
*1200 FILLER_106_2649
*1201 FILLER_106_2651
*1202 FILLER_106_314
*1203 FILLER_106_318
*1204 FILLER_106_321
*1205 FILLER_106_34
*1206 FILLER_106_37
*1207 FILLER_106_385
*1208 FILLER_106_389
*1209 FILLER_106_392
*1210 FILLER_106_456
*1211 FILLER_106_460
*1212 FILLER_106_463
*1213 FILLER_106_527
*1214 FILLER_106_531
*1215 FILLER_106_534
*1216 FILLER_106_598
*1217 FILLER_106_602
*1218 FILLER_106_605
*1219 FILLER_106_669
*1220 FILLER_106_673
*1221 FILLER_106_676
*1222 FILLER_106_740
*1223 FILLER_106_744
*1224 FILLER_106_747
*1225 FILLER_106_811
*1226 FILLER_106_815
*1227 FILLER_106_818
*1228 FILLER_106_882
*1229 FILLER_106_886
*1230 FILLER_106_889
*1231 FILLER_106_953
*1232 FILLER_106_957
*1233 FILLER_106_960
*1234 FILLER_107_1060
*1235 FILLER_107_1064
*1236 FILLER_107_1067
*1237 FILLER_107_1131
*1238 FILLER_107_1135
*1239 FILLER_107_1138
*1240 FILLER_107_1202
*1241 FILLER_107_1206
*1242 FILLER_107_1209
*1243 FILLER_107_1273
*1244 FILLER_107_1277
*1245 FILLER_107_1280
*1246 FILLER_107_1344
*1247 FILLER_107_1348
*1248 FILLER_107_1351
*1249 FILLER_107_137
*1250 FILLER_107_141
*1251 FILLER_107_1415
*1252 FILLER_107_1419
*1253 FILLER_107_1422
*1254 FILLER_107_144
*1255 FILLER_107_1486
*1256 FILLER_107_1490
*1257 FILLER_107_1493
*1258 FILLER_107_1557
*1259 FILLER_107_1561
*1260 FILLER_107_1564
*1261 FILLER_107_1628
*1262 FILLER_107_1632
*1263 FILLER_107_1635
*1264 FILLER_107_1699
*1265 FILLER_107_1703
*1266 FILLER_107_1706
*1267 FILLER_107_1770
*1268 FILLER_107_1774
*1269 FILLER_107_1777
*1270 FILLER_107_1841
*1271 FILLER_107_1845
*1272 FILLER_107_1848
*1273 FILLER_107_1912
*1274 FILLER_107_1916
*1275 FILLER_107_1919
*1276 FILLER_107_1983
*1277 FILLER_107_1987
*1278 FILLER_107_1990
*1279 FILLER_107_2
*1280 FILLER_107_2054
*1281 FILLER_107_2058
*1282 FILLER_107_2061
*1283 FILLER_107_208
*1284 FILLER_107_212
*1285 FILLER_107_2125
*1286 FILLER_107_2129
*1287 FILLER_107_2132
*1288 FILLER_107_215
*1289 FILLER_107_2196
*1290 FILLER_107_2200
*1291 FILLER_107_2203
*1292 FILLER_107_2267
*1293 FILLER_107_2271
*1294 FILLER_107_2274
*1295 FILLER_107_2338
*1296 FILLER_107_2342
*1297 FILLER_107_2345
*1298 FILLER_107_2409
*1299 FILLER_107_2413
*1300 FILLER_107_2416
*1301 FILLER_107_2480
*1302 FILLER_107_2484
*1303 FILLER_107_2487
*1304 FILLER_107_2551
*1305 FILLER_107_2555
*1306 FILLER_107_2558
*1307 FILLER_107_2622
*1308 FILLER_107_2626
*1309 FILLER_107_2629
*1310 FILLER_107_2645
*1311 FILLER_107_2649
*1312 FILLER_107_2651
*1313 FILLER_107_279
*1314 FILLER_107_283
*1315 FILLER_107_286
*1316 FILLER_107_350
*1317 FILLER_107_354
*1318 FILLER_107_357
*1319 FILLER_107_421
*1320 FILLER_107_425
*1321 FILLER_107_428
*1322 FILLER_107_492
*1323 FILLER_107_496
*1324 FILLER_107_499
*1325 FILLER_107_563
*1326 FILLER_107_567
*1327 FILLER_107_570
*1328 FILLER_107_634
*1329 FILLER_107_638
*1330 FILLER_107_641
*1331 FILLER_107_66
*1332 FILLER_107_70
*1333 FILLER_107_705
*1334 FILLER_107_709
*1335 FILLER_107_712
*1336 FILLER_107_73
*1337 FILLER_107_776
*1338 FILLER_107_780
*1339 FILLER_107_783
*1340 FILLER_107_847
*1341 FILLER_107_851
*1342 FILLER_107_854
*1343 FILLER_107_918
*1344 FILLER_107_922
*1345 FILLER_107_925
*1346 FILLER_107_989
*1347 FILLER_107_993
*1348 FILLER_107_996
*1349 FILLER_108_101
*1350 FILLER_108_1024
*1351 FILLER_108_1028
*1352 FILLER_108_1031
*1353 FILLER_108_105
*1354 FILLER_108_108
*1355 FILLER_108_1095
*1356 FILLER_108_1099
*1357 FILLER_108_1102
*1358 FILLER_108_1166
*1359 FILLER_108_1170
*1360 FILLER_108_1173
*1361 FILLER_108_1237
*1362 FILLER_108_1241
*1363 FILLER_108_1244
*1364 FILLER_108_1308
*1365 FILLER_108_1312
*1366 FILLER_108_1315
*1367 FILLER_108_1379
*1368 FILLER_108_1383
*1369 FILLER_108_1386
*1370 FILLER_108_1450
*1371 FILLER_108_1454
*1372 FILLER_108_1457
*1373 FILLER_108_1521
*1374 FILLER_108_1525
*1375 FILLER_108_1528
*1376 FILLER_108_1592
*1377 FILLER_108_1596
*1378 FILLER_108_1599
*1379 FILLER_108_1663
*1380 FILLER_108_1667
*1381 FILLER_108_1670
*1382 FILLER_108_172
*1383 FILLER_108_1734
*1384 FILLER_108_1738
*1385 FILLER_108_1741
*1386 FILLER_108_176
*1387 FILLER_108_179
*1388 FILLER_108_1805
*1389 FILLER_108_1809
*1390 FILLER_108_1812
*1391 FILLER_108_1876
*1392 FILLER_108_1880
*1393 FILLER_108_1883
*1394 FILLER_108_1947
*1395 FILLER_108_1951
*1396 FILLER_108_1954
*1397 FILLER_108_2
*1398 FILLER_108_2018
*1399 FILLER_108_2022
*1400 FILLER_108_2025
*1401 FILLER_108_2089
*1402 FILLER_108_2093
*1403 FILLER_108_2096
*1404 FILLER_108_2160
*1405 FILLER_108_2164
*1406 FILLER_108_2167
*1407 FILLER_108_2231
*1408 FILLER_108_2235
*1409 FILLER_108_2238
*1410 FILLER_108_2302
*1411 FILLER_108_2306
*1412 FILLER_108_2309
*1413 FILLER_108_2373
*1414 FILLER_108_2377
*1415 FILLER_108_2380
*1416 FILLER_108_243
*1417 FILLER_108_2444
*1418 FILLER_108_2448
*1419 FILLER_108_2451
*1420 FILLER_108_247
*1421 FILLER_108_250
*1422 FILLER_108_2515
*1423 FILLER_108_2519
*1424 FILLER_108_2522
*1425 FILLER_108_2586
*1426 FILLER_108_2590
*1427 FILLER_108_2593
*1428 FILLER_108_2625
*1429 FILLER_108_2641
*1430 FILLER_108_2649
*1431 FILLER_108_2651
*1432 FILLER_108_314
*1433 FILLER_108_318
*1434 FILLER_108_321
*1435 FILLER_108_34
*1436 FILLER_108_37
*1437 FILLER_108_385
*1438 FILLER_108_389
*1439 FILLER_108_392
*1440 FILLER_108_456
*1441 FILLER_108_460
*1442 FILLER_108_463
*1443 FILLER_108_527
*1444 FILLER_108_531
*1445 FILLER_108_534
*1446 FILLER_108_598
*1447 FILLER_108_602
*1448 FILLER_108_605
*1449 FILLER_108_669
*1450 FILLER_108_673
*1451 FILLER_108_676
*1452 FILLER_108_740
*1453 FILLER_108_744
*1454 FILLER_108_747
*1455 FILLER_108_811
*1456 FILLER_108_815
*1457 FILLER_108_818
*1458 FILLER_108_882
*1459 FILLER_108_886
*1460 FILLER_108_889
*1461 FILLER_108_953
*1462 FILLER_108_957
*1463 FILLER_108_960
*1464 FILLER_109_1060
*1465 FILLER_109_1064
*1466 FILLER_109_1067
*1467 FILLER_109_1131
*1468 FILLER_109_1135
*1469 FILLER_109_1138
*1470 FILLER_109_1202
*1471 FILLER_109_1206
*1472 FILLER_109_1209
*1473 FILLER_109_1273
*1474 FILLER_109_1277
*1475 FILLER_109_1280
*1476 FILLER_109_1344
*1477 FILLER_109_1348
*1478 FILLER_109_1351
*1479 FILLER_109_137
*1480 FILLER_109_141
*1481 FILLER_109_1415
*1482 FILLER_109_1419