* NGSPICE file created from cntr_example.ext - technology: gf180mcuC

* Black-box entry subcircuit for gf180mcu_fd_sc_mcu7t5v0__fill_1 abstract view
.subckt gf180mcu_fd_sc_mcu7t5v0__fill_1 VDD VSS
.ends

* Black-box entry subcircuit for gf180mcu_fd_sc_mcu7t5v0__fillcap_4 abstract view
.subckt gf180mcu_fd_sc_mcu7t5v0__fillcap_4 VDD VSS
.ends

* Black-box entry subcircuit for gf180mcu_fd_sc_mcu7t5v0__fillcap_64 abstract view
.subckt gf180mcu_fd_sc_mcu7t5v0__fillcap_64 VDD VSS
.ends

* Black-box entry subcircuit for gf180mcu_fd_sc_mcu7t5v0__fill_2 abstract view
.subckt gf180mcu_fd_sc_mcu7t5v0__fill_2 VDD VSS
.ends

* Black-box entry subcircuit for gf180mcu_fd_sc_mcu7t5v0__filltie abstract view
.subckt gf180mcu_fd_sc_mcu7t5v0__filltie VDD VSS
.ends

* Black-box entry subcircuit for gf180mcu_fd_sc_mcu7t5v0__fillcap_32 abstract view
.subckt gf180mcu_fd_sc_mcu7t5v0__fillcap_32 VDD VSS
.ends

* Black-box entry subcircuit for gf180mcu_fd_sc_mcu7t5v0__fillcap_16 abstract view
.subckt gf180mcu_fd_sc_mcu7t5v0__fillcap_16 VDD VSS
.ends

* Black-box entry subcircuit for gf180mcu_fd_sc_mcu7t5v0__fillcap_8 abstract view
.subckt gf180mcu_fd_sc_mcu7t5v0__fillcap_8 VDD VSS
.ends

* Black-box entry subcircuit for gf180mcu_fd_sc_mcu7t5v0__endcap abstract view
.subckt gf180mcu_fd_sc_mcu7t5v0__endcap VDD VSS
.ends

* Black-box entry subcircuit for gf180mcu_fd_sc_mcu7t5v0__dffq_1 abstract view
.subckt gf180mcu_fd_sc_mcu7t5v0__dffq_1 D CLK Q VDD VSS
.ends

* Black-box entry subcircuit for gf180mcu_fd_sc_mcu7t5v0__oai21_1 abstract view
.subckt gf180mcu_fd_sc_mcu7t5v0__oai21_1 A1 A2 B ZN VDD VSS
.ends

* Black-box entry subcircuit for gf180mcu_fd_sc_mcu7t5v0__antenna abstract view
.subckt gf180mcu_fd_sc_mcu7t5v0__antenna I VDD VSS
.ends

* Black-box entry subcircuit for gf180mcu_fd_sc_mcu7t5v0__clkbuf_3 abstract view
.subckt gf180mcu_fd_sc_mcu7t5v0__clkbuf_3 I Z VDD VSS
.ends

* Black-box entry subcircuit for gf180mcu_fd_sc_mcu7t5v0__clkbuf_1 abstract view
.subckt gf180mcu_fd_sc_mcu7t5v0__clkbuf_1 I Z VDD VSS
.ends

* Black-box entry subcircuit for gf180mcu_fd_sc_mcu7t5v0__tiel abstract view
.subckt gf180mcu_fd_sc_mcu7t5v0__tiel ZN VDD VSS
.ends

* Black-box entry subcircuit for gf180mcu_fd_sc_mcu7t5v0__nor2_1 abstract view
.subckt gf180mcu_fd_sc_mcu7t5v0__nor2_1 A1 A2 ZN VDD VSS
.ends

* Black-box entry subcircuit for gf180mcu_fd_sc_mcu7t5v0__xor2_1 abstract view
.subckt gf180mcu_fd_sc_mcu7t5v0__xor2_1 A1 A2 Z VDD VSS
.ends

* Black-box entry subcircuit for gf180mcu_fd_sc_mcu7t5v0__nand2_1 abstract view
.subckt gf180mcu_fd_sc_mcu7t5v0__nand2_1 A1 A2 ZN VDD VSS
.ends

* Black-box entry subcircuit for gf180mcu_fd_sc_mcu7t5v0__nand3_1 abstract view
.subckt gf180mcu_fd_sc_mcu7t5v0__nand3_1 A1 A2 A3 ZN VDD VSS
.ends

* Black-box entry subcircuit for gf180mcu_fd_sc_mcu7t5v0__aoi21_1 abstract view
.subckt gf180mcu_fd_sc_mcu7t5v0__aoi21_1 A1 A2 B ZN VDD VSS
.ends

* Black-box entry subcircuit for gf180mcu_fd_sc_mcu7t5v0__aoi21_2 abstract view
.subckt gf180mcu_fd_sc_mcu7t5v0__aoi21_2 A1 A2 B ZN VDD VSS
.ends

* Black-box entry subcircuit for gf180mcu_fd_sc_mcu7t5v0__buf_1 abstract view
.subckt gf180mcu_fd_sc_mcu7t5v0__buf_1 I Z VDD VSS
.ends

* Black-box entry subcircuit for gf180mcu_fd_sc_mcu7t5v0__clkbuf_2 abstract view
.subckt gf180mcu_fd_sc_mcu7t5v0__clkbuf_2 I Z VDD VSS
.ends

* Black-box entry subcircuit for gf180mcu_fd_sc_mcu7t5v0__clkinv_1 abstract view
.subckt gf180mcu_fd_sc_mcu7t5v0__clkinv_1 I ZN VDD VSS
.ends

* Black-box entry subcircuit for gf180mcu_fd_sc_mcu7t5v0__clkbuf_16 abstract view
.subckt gf180mcu_fd_sc_mcu7t5v0__clkbuf_16 I Z VDD VSS
.ends

.subckt cntr_example io_out[0] io_out[10] io_out[11] io_out[12] io_out[13] io_out[14]
+ io_out[15] io_out[16] io_out[17] io_out[18] io_out[19] io_out[1] io_out[20] io_out[21]
+ io_out[22] io_out[23] io_out[24] io_out[25] io_out[26] io_out[27] io_out[28] io_out[29]
+ io_out[2] io_out[30] io_out[31] io_out[32] io_out[33] io_out[34] io_out[35] io_out[36]
+ io_out[37] io_out[3] io_out[4] io_out[5] io_out[6] io_out[7] io_out[8] io_out[9]
+ vdd vss wb_clk_i wb_rst_i
XFILLER_95_851 vdd vss gf180mcu_fd_sc_mcu7t5v0__fill_1
XFILLER_288_1734 vdd vss gf180mcu_fd_sc_mcu7t5v0__fillcap_4
XFILLER_132_2089 vdd vss gf180mcu_fd_sc_mcu7t5v0__fillcap_4
XFILLER_267_492 vdd vss gf180mcu_fd_sc_mcu7t5v0__fillcap_4
XFILLER_27_428 vdd vss gf180mcu_fd_sc_mcu7t5v0__fillcap_64
XFILLER_270_602 vdd vss gf180mcu_fd_sc_mcu7t5v0__fill_1
XFILLER_247_2132 vdd vss gf180mcu_fd_sc_mcu7t5v0__fillcap_64
XFILLER_283_996 vdd vss gf180mcu_fd_sc_mcu7t5v0__fillcap_64
XFILLER_82_534 vdd vss gf180mcu_fd_sc_mcu7t5v0__fillcap_64
XFILLER_329_2487 vdd vss gf180mcu_fd_sc_mcu7t5v0__fillcap_64
XFILLER_199_208 vdd vss gf180mcu_fd_sc_mcu7t5v0__fillcap_4
XFILLER_184_2444 vdd vss gf180mcu_fd_sc_mcu7t5v0__fillcap_4
XFILLER_54_247 vdd vss gf180mcu_fd_sc_mcu7t5v0__fill_1
XFILLER_19_2409 vdd vss gf180mcu_fd_sc_mcu7t5v0__fillcap_4
XFILLER_3_1777 vdd vss gf180mcu_fd_sc_mcu7t5v0__fillcap_64
XFILLER_93_2338 vdd vss gf180mcu_fd_sc_mcu7t5v0__fillcap_4
XFILLER_149_1841 vdd vss gf180mcu_fd_sc_mcu7t5v0__fillcap_4
XFILLER_325_1628 vdd vss gf180mcu_fd_sc_mcu7t5v0__fillcap_4
XFILLER_282_2089 vdd vss gf180mcu_fd_sc_mcu7t5v0__fillcap_4
XFILLER_165_1131 vdd vss gf180mcu_fd_sc_mcu7t5v0__fillcap_4
XFILLER_56_2160 vdd vss gf180mcu_fd_sc_mcu7t5v0__fillcap_4
XFILLER_247_1486 vdd vss gf180mcu_fd_sc_mcu7t5v0__fillcap_4
XFILLER_23_634 vdd vss gf180mcu_fd_sc_mcu7t5v0__fillcap_4
XFILLER_1_1490 vdd vss gf180mcu_fd_sc_mcu7t5v0__fill_1
XFILLER_357_706 vdd vss gf180mcu_fd_sc_mcu7t5v0__fillcap_4
XFILLER_303_2649 vdd vss gf180mcu_fd_sc_mcu7t5v0__fill_2
XFILLER_250_392 vdd vss gf180mcu_fd_sc_mcu7t5v0__fillcap_64
XFILLER_195_425 vdd vss gf180mcu_fd_sc_mcu7t5v0__fill_1
XFILLER_221_2338 vdd vss gf180mcu_fd_sc_mcu7t5v0__fillcap_4
XFILLER_52_1312 vdd vss gf180mcu_fd_sc_mcu7t5v0__fill_1
XFILLER_299_1841 vdd vss gf180mcu_fd_sc_mcu7t5v0__fillcap_4
XFILLER_143_2196 vdd vss gf180mcu_fd_sc_mcu7t5v0__fillcap_4
XFILLER_338_953 vdd vss gf180mcu_fd_sc_mcu7t5v0__fillcap_4
XFILLER_182_108 vdd vss gf180mcu_fd_sc_mcu7t5v0__fillcap_64
XFILLER_371_208 vdd vss gf180mcu_fd_sc_mcu7t5v0__fillcap_4
XTAP_9607 vdd vss gf180mcu_fd_sc_mcu7t5v0__filltie
XFILLER_365_783 vdd vss gf180mcu_fd_sc_mcu7t5v0__fillcap_64
XTAP_9618 vdd vss gf180mcu_fd_sc_mcu7t5v0__filltie
XFILLER_104_1457 vdd vss gf180mcu_fd_sc_mcu7t5v0__fillcap_64
XTAP_9629 vdd vss gf180mcu_fd_sc_mcu7t5v0__filltie
XFILLER_148_385 vdd vss gf180mcu_fd_sc_mcu7t5v0__fillcap_4
XFILLER_178_1525 vdd vss gf180mcu_fd_sc_mcu7t5v0__fill_1
XFILLER_337_496 vdd vss gf180mcu_fd_sc_mcu7t5v0__fill_1
XFILLER_195_2551 vdd vss gf180mcu_fd_sc_mcu7t5v0__fillcap_4
XFILLER_30_2377 vdd vss gf180mcu_fd_sc_mcu7t5v0__fill_1
XFILLER_87_1419 vdd vss gf180mcu_fd_sc_mcu7t5v0__fill_1
XTAP_8906 vdd vss gf180mcu_fd_sc_mcu7t5v0__filltie
XTAP_12180 vdd vss gf180mcu_fd_sc_mcu7t5v0__filltie
XTAP_8917 vdd vss gf180mcu_fd_sc_mcu7t5v0__filltie
XFILLER_371_2338 vdd vss gf180mcu_fd_sc_mcu7t5v0__fillcap_4
XTAP_12191 vdd vss gf180mcu_fd_sc_mcu7t5v0__filltie
XTAP_8928 vdd vss gf180mcu_fd_sc_mcu7t5v0__filltie
XTAP_8939 vdd vss gf180mcu_fd_sc_mcu7t5v0__filltie
XFILLER_164_889 vdd vss gf180mcu_fd_sc_mcu7t5v0__fillcap_64
XFILLER_102_1170 vdd vss gf180mcu_fd_sc_mcu7t5v0__fill_1
XFILLER_353_989 vdd vss gf180mcu_fd_sc_mcu7t5v0__fillcap_4
XFILLER_11_1064 vdd vss gf180mcu_fd_sc_mcu7t5v0__fill_1
XFILLER_123_208 vdd vss gf180mcu_fd_sc_mcu7t5v0__fillcap_4
XFILLER_293_2196 vdd vss gf180mcu_fd_sc_mcu7t5v0__fillcap_4
XFILLER_219_2267 vdd vss gf180mcu_fd_sc_mcu7t5v0__fillcap_4
XFILLER_156_1812 vdd vss gf180mcu_fd_sc_mcu7t5v0__fillcap_64
XFILLER_324_179 vdd vss gf180mcu_fd_sc_mcu7t5v0__fillcap_64
XTAP_11490 vdd vss gf180mcu_fd_sc_mcu7t5v0__filltie
XFILLER_191_1703 vdd vss gf180mcu_fd_sc_mcu7t5v0__fill_1
XFILLER_65_1706 vdd vss gf180mcu_fd_sc_mcu7t5v0__fillcap_64
XFILLER_117_783 vdd vss gf180mcu_fd_sc_mcu7t5v0__fillcap_64
XFILLER_2_527 vdd vss gf180mcu_fd_sc_mcu7t5v0__fillcap_4
XFILLER_334_2160 vdd vss gf180mcu_fd_sc_mcu7t5v0__fillcap_4
XFILLER_172_1102 vdd vss gf180mcu_fd_sc_mcu7t5v0__fillcap_64
XFILLER_254_1457 vdd vss gf180mcu_fd_sc_mcu7t5v0__fillcap_64
XFILLER_277_212 vdd vss gf180mcu_fd_sc_mcu7t5v0__fill_1
XFILLER_117_66 vdd vss gf180mcu_fd_sc_mcu7t5v0__fillcap_4
XFILLER_215_1419 vdd vss gf180mcu_fd_sc_mcu7t5v0__fill_1
XFILLER_78_818 vdd vss gf180mcu_fd_sc_mcu7t5v0__fillcap_64
XFILLER_89_144 vdd vss gf180mcu_fd_sc_mcu7t5v0__fillcap_64
XFILLER_105_989 vdd vss gf180mcu_fd_sc_mcu7t5v0__fillcap_4
XFILLER_236_1880 vdd vss gf180mcu_fd_sc_mcu7t5v0__fill_1
XFILLER_330_1312 vdd vss gf180mcu_fd_sc_mcu7t5v0__fill_1
XFILLER_137_1277 vdd vss gf180mcu_fd_sc_mcu7t5v0__fill_1
XFILLER_293_705 vdd vss gf180mcu_fd_sc_mcu7t5v0__fillcap_4
XFILLER_320_385 vdd vss gf180mcu_fd_sc_mcu7t5v0__fillcap_4
XFILLER_252_1170 vdd vss gf180mcu_fd_sc_mcu7t5v0__fill_1
XFILLER_369_2267 vdd vss gf180mcu_fd_sc_mcu7t5v0__fillcap_4
XFILLER_58_531 vdd vss gf180mcu_fd_sc_mcu7t5v0__fill_1
XFILLER_150_2167 vdd vss gf180mcu_fd_sc_mcu7t5v0__fillcap_64
XFILLER_259_993 vdd vss gf180mcu_fd_sc_mcu7t5v0__fill_1
XFILLER_111_2129 vdd vss gf180mcu_fd_sc_mcu7t5v0__fill_1
XFILLER_98_2238 vdd vss gf180mcu_fd_sc_mcu7t5v0__fillcap_64
XFILLER_19_918 vdd vss gf180mcu_fd_sc_mcu7t5v0__fillcap_4
XFILLER_115_1564 vdd vss gf180mcu_fd_sc_mcu7t5v0__fillcap_64
XFILLER_189_1632 vdd vss gf180mcu_fd_sc_mcu7t5v0__fill_1
XFILLER_85_350 vdd vss gf180mcu_fd_sc_mcu7t5v0__fillcap_4
XFILLER_132_2590 vdd vss gf180mcu_fd_sc_mcu7t5v0__fill_1
XFILLER_41_2484 vdd vss gf180mcu_fd_sc_mcu7t5v0__fill_1
XTAP_3202 vdd vss gf180mcu_fd_sc_mcu7t5v0__filltie
XTAP_3213 vdd vss gf180mcu_fd_sc_mcu7t5v0__filltie
XFILLER_365_1419 vdd vss gf180mcu_fd_sc_mcu7t5v0__fill_1
XTAP_3224 vdd vss gf180mcu_fd_sc_mcu7t5v0__filltie
XFILLER_246_676 vdd vss gf180mcu_fd_sc_mcu7t5v0__fillcap_64
XTAP_3235 vdd vss gf180mcu_fd_sc_mcu7t5v0__filltie
XTAP_2501 vdd vss gf180mcu_fd_sc_mcu7t5v0__filltie
XFILLER_287_1277 vdd vss gf180mcu_fd_sc_mcu7t5v0__fill_1
XTAP_3246 vdd vss gf180mcu_fd_sc_mcu7t5v0__filltie
XFILLER_260_101 vdd vss gf180mcu_fd_sc_mcu7t5v0__fillcap_4
XFILLER_218_389 vdd vss gf180mcu_fd_sc_mcu7t5v0__fill_1
XTAP_2512 vdd vss gf180mcu_fd_sc_mcu7t5v0__filltie
XTAP_3257 vdd vss gf180mcu_fd_sc_mcu7t5v0__filltie
XTAP_2523 vdd vss gf180mcu_fd_sc_mcu7t5v0__filltie
XTAP_3268 vdd vss gf180mcu_fd_sc_mcu7t5v0__filltie
XFILLER_328_1241 vdd vss gf180mcu_fd_sc_mcu7t5v0__fill_1
XTAP_2534 vdd vss gf180mcu_fd_sc_mcu7t5v0__filltie
XTAP_3279 vdd vss gf180mcu_fd_sc_mcu7t5v0__filltie
XFILLER_73_567 vdd vss gf180mcu_fd_sc_mcu7t5v0__fill_1
XFILLER_343_1706 vdd vss gf180mcu_fd_sc_mcu7t5v0__fillcap_64
XTAP_1800 vdd vss gf180mcu_fd_sc_mcu7t5v0__filltie
XTAP_2545 vdd vss gf180mcu_fd_sc_mcu7t5v0__filltie
XFILLER_226_2238 vdd vss gf180mcu_fd_sc_mcu7t5v0__fillcap_64
XFILLER_165_2 vdd vss gf180mcu_fd_sc_mcu7t5v0__fillcap_64
XTAP_1811 vdd vss gf180mcu_fd_sc_mcu7t5v0__filltie
XTAP_2556 vdd vss gf180mcu_fd_sc_mcu7t5v0__filltie
XFILLER_261_2129 vdd vss gf180mcu_fd_sc_mcu7t5v0__fill_1
XTAP_1822 vdd vss gf180mcu_fd_sc_mcu7t5v0__filltie
XFILLER_265_1564 vdd vss gf180mcu_fd_sc_mcu7t5v0__fillcap_64
XFILLER_35_2200 vdd vss gf180mcu_fd_sc_mcu7t5v0__fill_1
XTAP_2567 vdd vss gf180mcu_fd_sc_mcu7t5v0__filltie
XFILLER_282_2590 vdd vss gf180mcu_fd_sc_mcu7t5v0__fill_1
XTAP_1833 vdd vss gf180mcu_fd_sc_mcu7t5v0__filltie
XTAP_2578 vdd vss gf180mcu_fd_sc_mcu7t5v0__filltie
XFILLER_148_2096 vdd vss gf180mcu_fd_sc_mcu7t5v0__fillcap_64
XTAP_1844 vdd vss gf180mcu_fd_sc_mcu7t5v0__filltie
XTAP_2589 vdd vss gf180mcu_fd_sc_mcu7t5v0__filltie
XFILLER_109_2058 vdd vss gf180mcu_fd_sc_mcu7t5v0__fill_1
XFILLER_242_882 vdd vss gf180mcu_fd_sc_mcu7t5v0__fillcap_4
XTAP_1855 vdd vss gf180mcu_fd_sc_mcu7t5v0__filltie
XFILLER_128_1947 vdd vss gf180mcu_fd_sc_mcu7t5v0__fillcap_4
XTAP_1866 vdd vss gf180mcu_fd_sc_mcu7t5v0__filltie
XTAP_13809 vdd vss gf180mcu_fd_sc_mcu7t5v0__filltie
XFILLER_201_212 vdd vss gf180mcu_fd_sc_mcu7t5v0__fill_1
XTAP_1877 vdd vss gf180mcu_fd_sc_mcu7t5v0__filltie
XFILLER_14_667 vdd vss gf180mcu_fd_sc_mcu7t5v0__fill_2
XFILLER_13_144 vdd vss gf180mcu_fd_sc_mcu7t5v0__fillcap_64
XFILLER_144_1237 vdd vss gf180mcu_fd_sc_mcu7t5v0__fillcap_4
XFILLER_158_105 vdd vss gf180mcu_fd_sc_mcu7t5v0__fill_1
XFILLER_332_2 vdd vss gf180mcu_fd_sc_mcu7t5v0__fillcap_32
XTAP_1888 vdd vss gf180mcu_fd_sc_mcu7t5v0__filltie
XTAP_1899 vdd vss gf180mcu_fd_sc_mcu7t5v0__filltie
XFILLER_161_2274 vdd vss gf180mcu_fd_sc_mcu7t5v0__fillcap_64
XFILLER_74_1592 vdd vss gf180mcu_fd_sc_mcu7t5v0__fillcap_4
XFILLER_9_137 vdd vss gf180mcu_fd_sc_mcu7t5v0__fillcap_4
XFILLER_356_750 vdd vss gf180mcu_fd_sc_mcu7t5v0__fill_2
XFILLER_298_2096 vdd vss gf180mcu_fd_sc_mcu7t5v0__fillcap_64
XFILLER_328_463 vdd vss gf180mcu_fd_sc_mcu7t5v0__fillcap_64
XFILLER_259_2058 vdd vss gf180mcu_fd_sc_mcu7t5v0__fill_1
XFILLER_6_811 vdd vss gf180mcu_fd_sc_mcu7t5v0__fillcap_4
XFILLER_278_1947 vdd vss gf180mcu_fd_sc_mcu7t5v0__fillcap_4
XFILLER_13_1841 vdd vss gf180mcu_fd_sc_mcu7t5v0__fillcap_4
XFILLER_319_2645 vdd vss gf180mcu_fd_sc_mcu7t5v0__fillcap_4
XFILLER_294_1237 vdd vss gf180mcu_fd_sc_mcu7t5v0__fillcap_4
XFILLER_115_709 vdd vss gf180mcu_fd_sc_mcu7t5v0__fill_1
XFILLER_316_669 vdd vss gf180mcu_fd_sc_mcu7t5v0__fillcap_4
XFILLER_237_2345 vdd vss gf180mcu_fd_sc_mcu7t5v0__fillcap_64
XFILLER_202_1592 vdd vss gf180mcu_fd_sc_mcu7t5v0__fillcap_4
XFILLER_181_141 vdd vss gf180mcu_fd_sc_mcu7t5v0__fill_1
XFILLER_170_815 vdd vss gf180mcu_fd_sc_mcu7t5v0__fill_1
XFILLER_5_354 vdd vss gf180mcu_fd_sc_mcu7t5v0__fill_1
XFILLER_48_2649 vdd vss gf180mcu_fd_sc_mcu7t5v0__fill_2
XFILLER_330_105 vdd vss gf180mcu_fd_sc_mcu7t5v0__fill_1
XFILLER_313_2200 vdd vss gf180mcu_fd_sc_mcu7t5v0__fill_1
XFILLER_343_499 vdd vss gf180mcu_fd_sc_mcu7t5v0__fillcap_64
XFILLER_116_2018 vdd vss gf180mcu_fd_sc_mcu7t5v0__fillcap_4
XFILLER_9_1419 vdd vss gf180mcu_fd_sc_mcu7t5v0__fill_1
XFILLER_155_1344 vdd vss gf180mcu_fd_sc_mcu7t5v0__fillcap_4
XFILLER_170_1809 vdd vss gf180mcu_fd_sc_mcu7t5v0__fill_1
XFILLER_46_2373 vdd vss gf180mcu_fd_sc_mcu7t5v0__fillcap_4
XFILLER_237_1699 vdd vss gf180mcu_fd_sc_mcu7t5v0__fillcap_4
XFILLER_312_886 vdd vss gf180mcu_fd_sc_mcu7t5v0__fill_1
XFILLER_352_1592 vdd vss gf180mcu_fd_sc_mcu7t5v0__fillcap_4
XFILLER_27_1060 vdd vss gf180mcu_fd_sc_mcu7t5v0__fillcap_4
XFILLER_296_598 vdd vss gf180mcu_fd_sc_mcu7t5v0__fillcap_4
XFILLER_283_215 vdd vss gf180mcu_fd_sc_mcu7t5v0__fillcap_64
XFILLER_42_1525 vdd vss gf180mcu_fd_sc_mcu7t5v0__fill_1
XFILLER_77_851 vdd vss gf180mcu_fd_sc_mcu7t5v0__fill_1
XFILLER_67_70 vdd vss gf180mcu_fd_sc_mcu7t5v0__fill_1
XFILLER_249_492 vdd vss gf180mcu_fd_sc_mcu7t5v0__fillcap_4
XTAP_5160 vdd vss gf180mcu_fd_sc_mcu7t5v0__filltie
XFILLER_266_2018 vdd vss gf180mcu_fd_sc_mcu7t5v0__fillcap_4
XTAP_5171 vdd vss gf180mcu_fd_sc_mcu7t5v0__filltie
XTAP_5182 vdd vss gf180mcu_fd_sc_mcu7t5v0__filltie
XTAP_5193 vdd vss gf180mcu_fd_sc_mcu7t5v0__filltie
XFILLER_20_1812 vdd vss gf180mcu_fd_sc_mcu7t5v0__fillcap_64
XFILLER_252_602 vdd vss gf180mcu_fd_sc_mcu7t5v0__fill_1
XFILLER_64_534 vdd vss gf180mcu_fd_sc_mcu7t5v0__fillcap_64
XTAP_4470 vdd vss gf180mcu_fd_sc_mcu7t5v0__filltie
XFILLER_265_996 vdd vss gf180mcu_fd_sc_mcu7t5v0__fillcap_64
XFILLER_94_2625 vdd vss gf180mcu_fd_sc_mcu7t5v0__fillcap_16
XFILLER_168_1738 vdd vss gf180mcu_fd_sc_mcu7t5v0__fill_1
XTAP_4481 vdd vss gf180mcu_fd_sc_mcu7t5v0__filltie
XFILLER_36_247 vdd vss gf180mcu_fd_sc_mcu7t5v0__fill_1
XTAP_4492 vdd vss gf180mcu_fd_sc_mcu7t5v0__filltie
XFILLER_326_2649 vdd vss gf180mcu_fd_sc_mcu7t5v0__fill_2
XFILLER_184_1028 vdd vss gf180mcu_fd_sc_mcu7t5v0__fill_1
XTAP_3780 vdd vss gf180mcu_fd_sc_mcu7t5v0__filltie
XFILLER_127_2125 vdd vss gf180mcu_fd_sc_mcu7t5v0__fillcap_4
XTAP_3791 vdd vss gf180mcu_fd_sc_mcu7t5v0__filltie
XFILLER_181_1916 vdd vss gf180mcu_fd_sc_mcu7t5v0__fill_1
XFILLER_55_1919 vdd vss gf180mcu_fd_sc_mcu7t5v0__fillcap_64
XFILLER_57_2480 vdd vss gf180mcu_fd_sc_mcu7t5v0__fillcap_4
XFILLER_324_2373 vdd vss gf180mcu_fd_sc_mcu7t5v0__fillcap_4
XFILLER_60_740 vdd vss gf180mcu_fd_sc_mcu7t5v0__fillcap_4
XFILLER_162_1315 vdd vss gf180mcu_fd_sc_mcu7t5v0__fillcap_64
XFILLER_222_2625 vdd vss gf180mcu_fd_sc_mcu7t5v0__fillcap_16
XFILLER_71_1209 vdd vss gf180mcu_fd_sc_mcu7t5v0__fillcap_64
XFILLER_232_392 vdd vss gf180mcu_fd_sc_mcu7t5v0__fillcap_64
XFILLER_177_425 vdd vss gf180mcu_fd_sc_mcu7t5v0__fill_1
XFILLER_14_2306 vdd vss gf180mcu_fd_sc_mcu7t5v0__fill_1
XFILLER_18_1741 vdd vss gf180mcu_fd_sc_mcu7t5v0__fillcap_64
XFILLER_92_1670 vdd vss gf180mcu_fd_sc_mcu7t5v0__fillcap_64
XFILLER_53_1632 vdd vss gf180mcu_fd_sc_mcu7t5v0__fill_1
XFILLER_305_1060 vdd vss gf180mcu_fd_sc_mcu7t5v0__fillcap_4
XFILLER_320_1525 vdd vss gf180mcu_fd_sc_mcu7t5v0__fill_1
XFILLER_193_918 vdd vss gf180mcu_fd_sc_mcu7t5v0__fillcap_4
XFILLER_34_1031 vdd vss gf180mcu_fd_sc_mcu7t5v0__fillcap_64
XFILLER_80_2 vdd vss gf180mcu_fd_sc_mcu7t5v0__fillcap_32
XFILLER_347_750 vdd vss gf180mcu_fd_sc_mcu7t5v0__fill_2
XFILLER_277_2125 vdd vss gf180mcu_fd_sc_mcu7t5v0__fillcap_4
XFILLER_242_1383 vdd vss gf180mcu_fd_sc_mcu7t5v0__fill_1
XFILLER_220_598 vdd vss gf180mcu_fd_sc_mcu7t5v0__fillcap_4
XFILLER_353_208 vdd vss gf180mcu_fd_sc_mcu7t5v0__fillcap_4
XFILLER_164_108 vdd vss gf180mcu_fd_sc_mcu7t5v0__fillcap_64
XFILLER_347_783 vdd vss gf180mcu_fd_sc_mcu7t5v0__fillcap_64
XFILLER_105_1777 vdd vss gf180mcu_fd_sc_mcu7t5v0__fillcap_64
XFILLER_319_496 vdd vss gf180mcu_fd_sc_mcu7t5v0__fill_1
XFILLER_372_2625 vdd vss gf180mcu_fd_sc_mcu7t5v0__fillcap_16
XFILLER_362_731 vdd vss gf180mcu_fd_sc_mcu7t5v0__fillcap_8
XFILLER_179_1845 vdd vss gf180mcu_fd_sc_mcu7t5v0__fill_1
XFILLER_220_1670 vdd vss gf180mcu_fd_sc_mcu7t5v0__fillcap_64
XFILLER_121_1067 vdd vss gf180mcu_fd_sc_mcu7t5v0__fillcap_64
XFILLER_195_1135 vdd vss gf180mcu_fd_sc_mcu7t5v0__fill_1
XFILLER_12_2096 vdd vss gf180mcu_fd_sc_mcu7t5v0__fillcap_64
XFILLER_69_1138 vdd vss gf180mcu_fd_sc_mcu7t5v0__fillcap_64
XFILLER_335_989 vdd vss gf180mcu_fd_sc_mcu7t5v0__fillcap_4
XFILLER_86_2164 vdd vss gf180mcu_fd_sc_mcu7t5v0__fill_1
XFILLER_146_889 vdd vss gf180mcu_fd_sc_mcu7t5v0__fillcap_64
XTAP_10030 vdd vss gf180mcu_fd_sc_mcu7t5v0__filltie
XFILLER_103_1490 vdd vss gf180mcu_fd_sc_mcu7t5v0__fill_1
XFILLER_105_208 vdd vss gf180mcu_fd_sc_mcu7t5v0__fillcap_4
XFILLER_306_179 vdd vss gf180mcu_fd_sc_mcu7t5v0__fillcap_64
XTAP_10041 vdd vss gf180mcu_fd_sc_mcu7t5v0__filltie
XFILLER_160_314 vdd vss gf180mcu_fd_sc_mcu7t5v0__fillcap_4
XFILLER_318_1454 vdd vss gf180mcu_fd_sc_mcu7t5v0__fill_1
XTAP_10052 vdd vss gf180mcu_fd_sc_mcu7t5v0__filltie
XTAP_10063 vdd vss gf180mcu_fd_sc_mcu7t5v0__filltie
XFILLER_335_2480 vdd vss gf180mcu_fd_sc_mcu7t5v0__fillcap_4
XFILLER_333_1919 vdd vss gf180mcu_fd_sc_mcu7t5v0__fillcap_64
XTAP_10074 vdd vss gf180mcu_fd_sc_mcu7t5v0__filltie
XFILLER_173_1422 vdd vss gf180mcu_fd_sc_mcu7t5v0__fillcap_64
XFILLER_64_2451 vdd vss gf180mcu_fd_sc_mcu7t5v0__fillcap_64
XFILLER_259_212 vdd vss gf180mcu_fd_sc_mcu7t5v0__fill_1
XFILLER_255_1777 vdd vss gf180mcu_fd_sc_mcu7t5v0__fillcap_64
XTAP_10085 vdd vss gf180mcu_fd_sc_mcu7t5v0__filltie
XTAP_10096 vdd vss gf180mcu_fd_sc_mcu7t5v0__filltie
XFILLER_25_2413 vdd vss gf180mcu_fd_sc_mcu7t5v0__fill_1
XFILLER_370_1670 vdd vss gf180mcu_fd_sc_mcu7t5v0__fillcap_64
XFILLER_275_705 vdd vss gf180mcu_fd_sc_mcu7t5v0__fillcap_4
XFILLER_271_1067 vdd vss gf180mcu_fd_sc_mcu7t5v0__fillcap_64
XFILLER_331_1632 vdd vss gf180mcu_fd_sc_mcu7t5v0__fill_1
XFILLER_214_2164 vdd vss gf180mcu_fd_sc_mcu7t5v0__fill_1
XFILLER_101_425 vdd vss gf180mcu_fd_sc_mcu7t5v0__fill_1
XFILLER_312_1031 vdd vss gf180mcu_fd_sc_mcu7t5v0__fillcap_64
XFILLER_302_385 vdd vss gf180mcu_fd_sc_mcu7t5v0__fillcap_4
XFILLER_253_1490 vdd vss gf180mcu_fd_sc_mcu7t5v0__fill_1
XFILLER_151_2487 vdd vss gf180mcu_fd_sc_mcu7t5v0__fillcap_64
XFILLER_99_2558 vdd vss gf180mcu_fd_sc_mcu7t5v0__fillcap_64
XFILLER_67_350 vdd vss gf180mcu_fd_sc_mcu7t5v0__fillcap_4
XFILLER_80_1095 vdd vss gf180mcu_fd_sc_mcu7t5v0__fillcap_4
XFILLER_186_1805 vdd vss gf180mcu_fd_sc_mcu7t5v0__fillcap_4
XFILLER_228_676 vdd vss gf180mcu_fd_sc_mcu7t5v0__fillcap_64
XFILLER_271_922 vdd vss gf180mcu_fd_sc_mcu7t5v0__fill_1
XFILLER_347_1138 vdd vss gf180mcu_fd_sc_mcu7t5v0__fillcap_64
XFILLER_83_854 vdd vss gf180mcu_fd_sc_mcu7t5v0__fillcap_64
XFILLER_97_2271 vdd vss gf180mcu_fd_sc_mcu7t5v0__fill_1
XFILLER_364_2164 vdd vss gf180mcu_fd_sc_mcu7t5v0__fill_1
XFILLER_242_101 vdd vss gf180mcu_fd_sc_mcu7t5v0__fillcap_4
XFILLER_55_567 vdd vss gf180mcu_fd_sc_mcu7t5v0__fill_1
XFILLER_110_1450 vdd vss gf180mcu_fd_sc_mcu7t5v0__fillcap_4
XFILLER_145_2203 vdd vss gf180mcu_fd_sc_mcu7t5v0__fillcap_64
XFILLER_329_1561 vdd vss gf180mcu_fd_sc_mcu7t5v0__fill_1
XFILLER_58_1521 vdd vss gf180mcu_fd_sc_mcu7t5v0__fillcap_4
XTAP_1107 vdd vss gf180mcu_fd_sc_mcu7t5v0__filltie
XFILLER_227_2558 vdd vss gf180mcu_fd_sc_mcu7t5v0__fillcap_64
XTAP_1118 vdd vss gf180mcu_fd_sc_mcu7t5v0__filltie
XTAP_1129 vdd vss gf180mcu_fd_sc_mcu7t5v0__filltie
XFILLER_342_2451 vdd vss gf180mcu_fd_sc_mcu7t5v0__fillcap_64
XFILLER_230_318 vdd vss gf180mcu_fd_sc_mcu7t5v0__fill_1
XFILLER_303_2413 vdd vss gf180mcu_fd_sc_mcu7t5v0__fill_1
XFILLER_224_882 vdd vss gf180mcu_fd_sc_mcu7t5v0__fillcap_4
XFILLER_225_2271 vdd vss gf180mcu_fd_sc_mcu7t5v0__fill_1
XFILLER_50_250 vdd vss gf180mcu_fd_sc_mcu7t5v0__fillcap_64
XFILLER_145_1557 vdd vss gf180mcu_fd_sc_mcu7t5v0__fillcap_4
XFILLER_36_2586 vdd vss gf180mcu_fd_sc_mcu7t5v0__fillcap_4
XFILLER_260_1450 vdd vss gf180mcu_fd_sc_mcu7t5v0__fillcap_4
XFILLER_295_2203 vdd vss gf180mcu_fd_sc_mcu7t5v0__fillcap_64
XFILLER_345_709 vdd vss gf180mcu_fd_sc_mcu7t5v0__fill_1
XFILLER_17_1273 vdd vss gf180mcu_fd_sc_mcu7t5v0__fillcap_4
XFILLER_183_428 vdd vss gf180mcu_fd_sc_mcu7t5v0__fillcap_64
XFILLER_32_1738 vdd vss gf180mcu_fd_sc_mcu7t5v0__fill_1
XTAP_9404 vdd vss gf180mcu_fd_sc_mcu7t5v0__filltie
XFILLER_197_1912 vdd vss gf180mcu_fd_sc_mcu7t5v0__fillcap_4
XTAP_9415 vdd vss gf180mcu_fd_sc_mcu7t5v0__filltie
XTAP_9426 vdd vss gf180mcu_fd_sc_mcu7t5v0__filltie
XTAP_9437 vdd vss gf180mcu_fd_sc_mcu7t5v0__filltie
XFILLER_295_1557 vdd vss gf180mcu_fd_sc_mcu7t5v0__fillcap_4
XTAP_9448 vdd vss gf180mcu_fd_sc_mcu7t5v0__filltie
XTAP_8703 vdd vss gf180mcu_fd_sc_mcu7t5v0__filltie
XTAP_8714 vdd vss gf180mcu_fd_sc_mcu7t5v0__filltie
XFILLER_178_2089 vdd vss gf180mcu_fd_sc_mcu7t5v0__fillcap_4
XTAP_9459 vdd vss gf180mcu_fd_sc_mcu7t5v0__filltie
XFILLER_163_141 vdd vss gf180mcu_fd_sc_mcu7t5v0__fill_1
XFILLER_152_815 vdd vss gf180mcu_fd_sc_mcu7t5v0__fill_1
XTAP_8725 vdd vss gf180mcu_fd_sc_mcu7t5v0__filltie
XFILLER_336_1521 vdd vss gf180mcu_fd_sc_mcu7t5v0__fillcap_4
XTAP_8736 vdd vss gf180mcu_fd_sc_mcu7t5v0__filltie
XFILLER_312_105 vdd vss gf180mcu_fd_sc_mcu7t5v0__fill_1
XTAP_8747 vdd vss gf180mcu_fd_sc_mcu7t5v0__filltie
XFILLER_325_499 vdd vss gf180mcu_fd_sc_mcu7t5v0__fillcap_64
XTAP_8758 vdd vss gf180mcu_fd_sc_mcu7t5v0__filltie
XTAP_8769 vdd vss gf180mcu_fd_sc_mcu7t5v0__filltie
XFILLER_3_847 vdd vss gf180mcu_fd_sc_mcu7t5v0__fillcap_4
XFILLER_191_2267 vdd vss gf180mcu_fd_sc_mcu7t5v0__fillcap_4
XFILLER_117_2338 vdd vss gf180mcu_fd_sc_mcu7t5v0__fillcap_4
XFILLER_232_2231 vdd vss gf180mcu_fd_sc_mcu7t5v0__fillcap_4
XFILLER_134_2641 vdd vss gf180mcu_fd_sc_mcu7t5v0__fillcap_8
XFILLER_314_2586 vdd vss gf180mcu_fd_sc_mcu7t5v0__fillcap_4
XFILLER_152_1528 vdd vss gf180mcu_fd_sc_mcu7t5v0__fillcap_64
XFILLER_8_2164 vdd vss gf180mcu_fd_sc_mcu7t5v0__fill_1
XFILLER_291_70 vdd vss gf180mcu_fd_sc_mcu7t5v0__fill_1
XFILLER_278_598 vdd vss gf180mcu_fd_sc_mcu7t5v0__fillcap_4
XFILLER_265_215 vdd vss gf180mcu_fd_sc_mcu7t5v0__fillcap_64
XFILLER_82_1883 vdd vss gf180mcu_fd_sc_mcu7t5v0__fillcap_64
XFILLER_134_1951 vdd vss gf180mcu_fd_sc_mcu7t5v0__fill_1
XFILLER_43_1845 vdd vss gf180mcu_fd_sc_mcu7t5v0__fill_1
XFILLER_59_851 vdd vss gf180mcu_fd_sc_mcu7t5v0__fill_1
XFILLER_349_2649 vdd vss gf180mcu_fd_sc_mcu7t5v0__fill_2
XFILLER_310_1738 vdd vss gf180mcu_fd_sc_mcu7t5v0__fill_1
XFILLER_282_2 vdd vss gf180mcu_fd_sc_mcu7t5v0__fillcap_32
XFILLER_24_1244 vdd vss gf180mcu_fd_sc_mcu7t5v0__fillcap_64
XFILLER_150_1241 vdd vss gf180mcu_fd_sc_mcu7t5v0__fill_1
XFILLER_267_2338 vdd vss gf180mcu_fd_sc_mcu7t5v0__fillcap_4
XFILLER_232_1596 vdd vss gf180mcu_fd_sc_mcu7t5v0__fill_1
XFILLER_98_1312 vdd vss gf180mcu_fd_sc_mcu7t5v0__fill_1
XTAP_3010 vdd vss gf180mcu_fd_sc_mcu7t5v0__filltie
XFILLER_234_602 vdd vss gf180mcu_fd_sc_mcu7t5v0__fill_1
XFILLER_189_2196 vdd vss gf180mcu_fd_sc_mcu7t5v0__fillcap_4
XFILLER_308_2302 vdd vss gf180mcu_fd_sc_mcu7t5v0__fillcap_4
XFILLER_284_2641 vdd vss gf180mcu_fd_sc_mcu7t5v0__fillcap_8
XFILLER_247_996 vdd vss gf180mcu_fd_sc_mcu7t5v0__fillcap_64
XFILLER_46_534 vdd vss gf180mcu_fd_sc_mcu7t5v0__fillcap_64
XTAP_3021 vdd vss gf180mcu_fd_sc_mcu7t5v0__filltie
XTAP_3032 vdd vss gf180mcu_fd_sc_mcu7t5v0__filltie
XFILLER_37_73 vdd vss gf180mcu_fd_sc_mcu7t5v0__fillcap_64
XFILLER_18_247 vdd vss gf180mcu_fd_sc_mcu7t5v0__fill_1
XTAP_3043 vdd vss gf180mcu_fd_sc_mcu7t5v0__filltie
XFILLER_261_421 vdd vss gf180mcu_fd_sc_mcu7t5v0__fillcap_4
XTAP_3054 vdd vss gf180mcu_fd_sc_mcu7t5v0__filltie
XFILLER_210_1883 vdd vss gf180mcu_fd_sc_mcu7t5v0__fillcap_64
XTAP_2320 vdd vss gf180mcu_fd_sc_mcu7t5v0__filltie
XTAP_3065 vdd vss gf180mcu_fd_sc_mcu7t5v0__filltie
XFILLER_284_1951 vdd vss gf180mcu_fd_sc_mcu7t5v0__fill_1
XFILLER_185_1348 vdd vss gf180mcu_fd_sc_mcu7t5v0__fill_1
XTAP_2331 vdd vss gf180mcu_fd_sc_mcu7t5v0__filltie
XTAP_3076 vdd vss gf180mcu_fd_sc_mcu7t5v0__filltie
XTAP_2342 vdd vss gf180mcu_fd_sc_mcu7t5v0__filltie
XTAP_3087 vdd vss gf180mcu_fd_sc_mcu7t5v0__filltie
XTAP_2353 vdd vss gf180mcu_fd_sc_mcu7t5v0__filltie
XTAP_3098 vdd vss gf180mcu_fd_sc_mcu7t5v0__filltie
XFILLER_76_2377 vdd vss gf180mcu_fd_sc_mcu7t5v0__fill_1
XFILLER_226_1312 vdd vss gf180mcu_fd_sc_mcu7t5v0__fill_1
XTAP_2364 vdd vss gf180mcu_fd_sc_mcu7t5v0__filltie
XTAP_1630 vdd vss gf180mcu_fd_sc_mcu7t5v0__filltie
XFILLER_2_1095 vdd vss gf180mcu_fd_sc_mcu7t5v0__fillcap_4
XTAP_2375 vdd vss gf180mcu_fd_sc_mcu7t5v0__filltie
XTAP_14307 vdd vss gf180mcu_fd_sc_mcu7t5v0__filltie
XTAP_1641 vdd vss gf180mcu_fd_sc_mcu7t5v0__filltie
XFILLER_124_2309 vdd vss gf180mcu_fd_sc_mcu7t5v0__fillcap_64
XTAP_14318 vdd vss gf180mcu_fd_sc_mcu7t5v0__filltie
XFILLER_308_1667 vdd vss gf180mcu_fd_sc_mcu7t5v0__fill_1
XFILLER_42_740 vdd vss gf180mcu_fd_sc_mcu7t5v0__fillcap_4
XTAP_2386 vdd vss gf180mcu_fd_sc_mcu7t5v0__filltie
XFILLER_148_1170 vdd vss gf180mcu_fd_sc_mcu7t5v0__fill_1
XTAP_14329 vdd vss gf180mcu_fd_sc_mcu7t5v0__filltie
XFILLER_187_712 vdd vss gf180mcu_fd_sc_mcu7t5v0__fillcap_64
XFILLER_163_1635 vdd vss gf180mcu_fd_sc_mcu7t5v0__fillcap_64
XTAP_1652 vdd vss gf180mcu_fd_sc_mcu7t5v0__filltie
XTAP_2397 vdd vss gf180mcu_fd_sc_mcu7t5v0__filltie
XFILLER_57_1064 vdd vss gf180mcu_fd_sc_mcu7t5v0__fill_1
XTAP_1663 vdd vss gf180mcu_fd_sc_mcu7t5v0__filltie
XFILLER_214_392 vdd vss gf180mcu_fd_sc_mcu7t5v0__fillcap_64
XFILLER_159_425 vdd vss gf180mcu_fd_sc_mcu7t5v0__fill_1
XTAP_1674 vdd vss gf180mcu_fd_sc_mcu7t5v0__filltie
XTAP_13606 vdd vss gf180mcu_fd_sc_mcu7t5v0__filltie
XTAP_1685 vdd vss gf180mcu_fd_sc_mcu7t5v0__filltie
XFILLER_15_2626 vdd vss gf180mcu_fd_sc_mcu7t5v0__fill_1
XTAP_13617 vdd vss gf180mcu_fd_sc_mcu7t5v0__filltie
XTAP_1696 vdd vss gf180mcu_fd_sc_mcu7t5v0__filltie
XFILLER_93_1990 vdd vss gf180mcu_fd_sc_mcu7t5v0__fillcap_64
XTAP_13628 vdd vss gf180mcu_fd_sc_mcu7t5v0__filltie
XFILLER_122_2022 vdd vss gf180mcu_fd_sc_mcu7t5v0__fill_1
XFILLER_141_2645 vdd vss gf180mcu_fd_sc_mcu7t5v0__fillcap_4
XFILLER_360_1883 vdd vss gf180mcu_fd_sc_mcu7t5v0__fillcap_64
XTAP_13639 vdd vss gf180mcu_fd_sc_mcu7t5v0__filltie
XFILLER_41_283 vdd vss gf180mcu_fd_sc_mcu7t5v0__fill_1
XTAP_12905 vdd vss gf180mcu_fd_sc_mcu7t5v0__filltie
XFILLER_321_1845 vdd vss gf180mcu_fd_sc_mcu7t5v0__fill_1
XFILLER_204_2377 vdd vss gf180mcu_fd_sc_mcu7t5v0__fill_1
XFILLER_175_918 vdd vss gf180mcu_fd_sc_mcu7t5v0__fillcap_4
XFILLER_30_957 vdd vss gf180mcu_fd_sc_mcu7t5v0__fill_1
XFILLER_50_1805 vdd vss gf180mcu_fd_sc_mcu7t5v0__fillcap_4
XFILLER_35_1351 vdd vss gf180mcu_fd_sc_mcu7t5v0__fillcap_64
XTAP_12916 vdd vss gf180mcu_fd_sc_mcu7t5v0__filltie
XFILLER_302_1244 vdd vss gf180mcu_fd_sc_mcu7t5v0__fillcap_64
XFILLER_202_598 vdd vss gf180mcu_fd_sc_mcu7t5v0__fillcap_4
XFILLER_335_208 vdd vss gf180mcu_fd_sc_mcu7t5v0__fillcap_4
XTAP_12927 vdd vss gf180mcu_fd_sc_mcu7t5v0__filltie
XFILLER_146_108 vdd vss gf180mcu_fd_sc_mcu7t5v0__fillcap_64
XTAP_12938 vdd vss gf180mcu_fd_sc_mcu7t5v0__filltie
XFILLER_329_783 vdd vss gf180mcu_fd_sc_mcu7t5v0__fillcap_64
XTAP_12949 vdd vss gf180mcu_fd_sc_mcu7t5v0__filltie
XFILLER_274_2309 vdd vss gf180mcu_fd_sc_mcu7t5v0__fillcap_64
XFILLER_298_1170 vdd vss gf180mcu_fd_sc_mcu7t5v0__fill_1
XFILLER_239_1706 vdd vss gf180mcu_fd_sc_mcu7t5v0__fillcap_64
XFILLER_196_2167 vdd vss gf180mcu_fd_sc_mcu7t5v0__fillcap_64
XFILLER_157_2129 vdd vss gf180mcu_fd_sc_mcu7t5v0__fill_1
XFILLER_221_1990 vdd vss gf180mcu_fd_sc_mcu7t5v0__fillcap_64
XFILLER_6_641 vdd vss gf180mcu_fd_sc_mcu7t5v0__fill_2
XFILLER_128_889 vdd vss gf180mcu_fd_sc_mcu7t5v0__fillcap_64
XFILLER_317_989 vdd vss gf180mcu_fd_sc_mcu7t5v0__fillcap_4
XFILLER_178_2590 vdd vss gf180mcu_fd_sc_mcu7t5v0__fill_1
XFILLER_291_2645 vdd vss gf180mcu_fd_sc_mcu7t5v0__fillcap_4
XFILLER_272_2022 vdd vss gf180mcu_fd_sc_mcu7t5v0__fill_1
XTAP_9960 vdd vss gf180mcu_fd_sc_mcu7t5v0__filltie
XFILLER_87_2484 vdd vss gf180mcu_fd_sc_mcu7t5v0__fill_1
XTAP_9971 vdd vss gf180mcu_fd_sc_mcu7t5v0__filltie
XFILLER_192_1308 vdd vss gf180mcu_fd_sc_mcu7t5v0__fillcap_4
XFILLER_142_314 vdd vss gf180mcu_fd_sc_mcu7t5v0__fillcap_4
XFILLER_354_2377 vdd vss gf180mcu_fd_sc_mcu7t5v0__fill_1
XTAP_9982 vdd vss gf180mcu_fd_sc_mcu7t5v0__filltie
XFILLER_331_425 vdd vss gf180mcu_fd_sc_mcu7t5v0__fill_1
XFILLER_288_318 vdd vss gf180mcu_fd_sc_mcu7t5v0__fill_1
XTAP_9993 vdd vss gf180mcu_fd_sc_mcu7t5v0__filltie
XFILLER_100_1663 vdd vss gf180mcu_fd_sc_mcu7t5v0__fillcap_4
XFILLER_319_1774 vdd vss gf180mcu_fd_sc_mcu7t5v0__fill_1
XFILLER_135_2416 vdd vss gf180mcu_fd_sc_mcu7t5v0__fillcap_64
XFILLER_48_1734 vdd vss gf180mcu_fd_sc_mcu7t5v0__fillcap_4
XFILLER_335_1064 vdd vss gf180mcu_fd_sc_mcu7t5v0__fill_1
XFILLER_64_1024 vdd vss gf180mcu_fd_sc_mcu7t5v0__fillcap_4
XFILLER_111_712 vdd vss gf180mcu_fd_sc_mcu7t5v0__fillcap_64
XFILLER_371_1990 vdd vss gf180mcu_fd_sc_mcu7t5v0__fillcap_64