*SPEF "ieee 1481-1999"
*DESIGN "user_project_wrapper"
*DATE "11:11:11 Fri 11 11, 1111"
*VENDOR "OpenRCX"
*PROGRAM "Parallel Extraction"
*VERSION "1.0"
*DESIGN_FLOW "NAME_SCOPE LOCAL" "PIN_CAP NONE"
*DIVIDER /
*DELIMITER :
*BUS_DELIMITER []
*T_UNIT 1 NS
*C_UNIT 1 PF
*R_UNIT 1 OHM
*L_UNIT 1 HENRY

*NAME_MAP
*1 io_in[0]
*2 io_in[10]
*3 io_in[11]
*4 io_in[12]
*5 io_in[13]
*6 io_in[14]
*7 io_in[15]
*8 io_in[16]
*9 io_in[17]
*10 io_in[18]
*11 io_in[19]
*12 io_in[1]
*13 io_in[20]
*14 io_in[21]
*15 io_in[22]
*16 io_in[23]
*17 io_in[24]
*18 io_in[25]
*19 io_in[26]
*20 io_in[27]
*21 io_in[28]
*22 io_in[29]
*23 io_in[2]
*24 io_in[30]
*25 io_in[31]
*26 io_in[32]
*27 io_in[33]
*28 io_in[34]
*29 io_in[35]
*30 io_in[36]
*31 io_in[37]
*32 io_in[3]
*33 io_in[4]
*34 io_in[5]
*35 io_in[6]
*36 io_in[7]
*37 io_in[8]
*38 io_in[9]
*39 io_oeb[0]
*40 io_oeb[10]
*41 io_oeb[11]
*42 io_oeb[12]
*43 io_oeb[13]
*44 io_oeb[14]
*45 io_oeb[15]
*46 io_oeb[16]
*47 io_oeb[17]
*48 io_oeb[18]
*49 io_oeb[19]
*50 io_oeb[1]
*51 io_oeb[20]
*52 io_oeb[21]
*53 io_oeb[22]
*54 io_oeb[23]
*55 io_oeb[24]
*56 io_oeb[25]
*57 io_oeb[26]
*58 io_oeb[27]
*59 io_oeb[28]
*60 io_oeb[29]
*61 io_oeb[2]
*62 io_oeb[30]
*63 io_oeb[31]
*64 io_oeb[32]
*65 io_oeb[33]
*66 io_oeb[34]
*67 io_oeb[35]
*68 io_oeb[36]
*69 io_oeb[37]
*70 io_oeb[3]
*71 io_oeb[4]
*72 io_oeb[5]
*73 io_oeb[6]
*74 io_oeb[7]
*75 io_oeb[8]
*76 io_oeb[9]
*77 io_out[0]
*78 io_out[10]
*79 io_out[11]
*80 io_out[12]
*81 io_out[13]
*82 io_out[14]
*83 io_out[15]
*84 io_out[16]
*85 io_out[17]
*86 io_out[18]
*87 io_out[19]
*88 io_out[1]
*89 io_out[20]
*90 io_out[21]
*91 io_out[22]
*92 io_out[23]
*93 io_out[24]
*94 io_out[25]
*95 io_out[26]
*96 io_out[27]
*97 io_out[28]
*98 io_out[29]
*99 io_out[2]
*100 io_out[30]
*101 io_out[31]
*102 io_out[32]
*103 io_out[33]
*104 io_out[34]
*105 io_out[35]
*106 io_out[36]
*107 io_out[37]
*108 io_out[3]
*109 io_out[4]
*110 io_out[5]
*111 io_out[6]
*112 io_out[7]
*113 io_out[8]
*114 io_out[9]
*115 la_data_in[0]
*116 la_data_in[10]
*117 la_data_in[11]
*118 la_data_in[12]
*119 la_data_in[13]
*120 la_data_in[14]
*121 la_data_in[15]
*122 la_data_in[16]
*123 la_data_in[17]
*124 la_data_in[18]
*125 la_data_in[19]
*126 la_data_in[1]
*127 la_data_in[20]
*128 la_data_in[21]
*129 la_data_in[22]
*130 la_data_in[23]
*131 la_data_in[24]
*132 la_data_in[25]
*133 la_data_in[26]
*134 la_data_in[27]
*135 la_data_in[28]
*136 la_data_in[29]
*137 la_data_in[2]
*138 la_data_in[30]
*139 la_data_in[31]
*140 la_data_in[32]
*141 la_data_in[33]
*142 la_data_in[34]
*143 la_data_in[35]
*144 la_data_in[36]
*145 la_data_in[37]
*146 la_data_in[38]
*147 la_data_in[39]
*148 la_data_in[3]
*149 la_data_in[40]
*150 la_data_in[41]
*151 la_data_in[42]
*152 la_data_in[43]
*153 la_data_in[44]
*154 la_data_in[45]
*155 la_data_in[46]
*156 la_data_in[47]
*157 la_data_in[48]
*158 la_data_in[49]
*159 la_data_in[4]
*160 la_data_in[50]
*161 la_data_in[51]
*162 la_data_in[52]
*163 la_data_in[53]
*164 la_data_in[54]
*165 la_data_in[55]
*166 la_data_in[56]
*167 la_data_in[57]
*168 la_data_in[58]
*169 la_data_in[59]
*170 la_data_in[5]
*171 la_data_in[60]
*172 la_data_in[61]
*173 la_data_in[62]
*174 la_data_in[63]
*175 la_data_in[6]
*176 la_data_in[7]
*177 la_data_in[8]
*178 la_data_in[9]
*179 la_data_out[0]
*180 la_data_out[10]
*181 la_data_out[11]
*182 la_data_out[12]
*183 la_data_out[13]
*184 la_data_out[14]
*185 la_data_out[15]
*186 la_data_out[16]
*187 la_data_out[17]
*188 la_data_out[18]
*189 la_data_out[19]
*190 la_data_out[1]
*191 la_data_out[20]
*192 la_data_out[21]
*193 la_data_out[22]
*194 la_data_out[23]
*195 la_data_out[24]
*196 la_data_out[25]
*197 la_data_out[26]
*198 la_data_out[27]
*199 la_data_out[28]
*200 la_data_out[29]
*201 la_data_out[2]
*202 la_data_out[30]
*203 la_data_out[31]
*204 la_data_out[32]
*205 la_data_out[33]
*206 la_data_out[34]
*207 la_data_out[35]
*208 la_data_out[36]
*209 la_data_out[37]
*210 la_data_out[38]
*211 la_data_out[39]
*212 la_data_out[3]
*213 la_data_out[40]
*214 la_data_out[41]
*215 la_data_out[42]
*216 la_data_out[43]
*217 la_data_out[44]
*218 la_data_out[45]
*219 la_data_out[46]
*220 la_data_out[47]
*221 la_data_out[48]
*222 la_data_out[49]
*223 la_data_out[4]
*224 la_data_out[50]
*225 la_data_out[51]
*226 la_data_out[52]
*227 la_data_out[53]
*228 la_data_out[54]
*229 la_data_out[55]
*230 la_data_out[56]
*231 la_data_out[57]
*232 la_data_out[58]
*233 la_data_out[59]
*234 la_data_out[5]
*235 la_data_out[60]
*236 la_data_out[61]
*237 la_data_out[62]
*238 la_data_out[63]
*239 la_data_out[6]
*240 la_data_out[7]
*241 la_data_out[8]
*242 la_data_out[9]
*243 la_oenb[0]
*244 la_oenb[10]
*245 la_oenb[11]
*246 la_oenb[12]
*247 la_oenb[13]
*248 la_oenb[14]
*249 la_oenb[15]
*250 la_oenb[16]
*251 la_oenb[17]
*252 la_oenb[18]
*253 la_oenb[19]
*254 la_oenb[1]
*255 la_oenb[20]
*256 la_oenb[21]
*257 la_oenb[22]
*258 la_oenb[23]
*259 la_oenb[24]
*260 la_oenb[25]
*261 la_oenb[26]
*262 la_oenb[27]
*263 la_oenb[28]
*264 la_oenb[29]
*265 la_oenb[2]
*266 la_oenb[30]
*267 la_oenb[31]
*268 la_oenb[32]
*269 la_oenb[33]
*270 la_oenb[34]
*271 la_oenb[35]
*272 la_oenb[36]
*273 la_oenb[37]
*274 la_oenb[38]
*275 la_oenb[39]
*276 la_oenb[3]
*277 la_oenb[40]
*278 la_oenb[41]
*279 la_oenb[42]
*280 la_oenb[43]
*281 la_oenb[44]
*282 la_oenb[45]
*283 la_oenb[46]
*284 la_oenb[47]
*285 la_oenb[48]
*286 la_oenb[49]
*287 la_oenb[4]
*288 la_oenb[50]
*289 la_oenb[51]
*290 la_oenb[52]
*291 la_oenb[53]
*292 la_oenb[54]
*293 la_oenb[55]
*294 la_oenb[56]
*295 la_oenb[57]
*296 la_oenb[58]
*297 la_oenb[59]
*298 la_oenb[5]
*299 la_oenb[60]
*300 la_oenb[61]
*301 la_oenb[62]
*302 la_oenb[63]
*303 la_oenb[6]
*304 la_oenb[7]
*305 la_oenb[8]
*306 la_oenb[9]
*307 user_clock2
*308 user_irq[0]
*309 user_irq[1]
*310 user_irq[2]
*313 wb_clk_i
*314 wb_rst_i
*315 wbs_ack_o
*316 wbs_adr_i[0]
*317 wbs_adr_i[10]
*318 wbs_adr_i[11]
*319 wbs_adr_i[12]
*320 wbs_adr_i[13]
*321 wbs_adr_i[14]
*322 wbs_adr_i[15]
*323 wbs_adr_i[16]
*324 wbs_adr_i[17]
*325 wbs_adr_i[18]
*326 wbs_adr_i[19]
*327 wbs_adr_i[1]
*328 wbs_adr_i[20]
*329 wbs_adr_i[21]
*330 wbs_adr_i[22]
*331 wbs_adr_i[23]
*332 wbs_adr_i[24]
*333 wbs_adr_i[25]
*334 wbs_adr_i[26]
*335 wbs_adr_i[27]
*336 wbs_adr_i[28]
*337 wbs_adr_i[29]
*338 wbs_adr_i[2]
*339 wbs_adr_i[30]
*340 wbs_adr_i[31]
*341 wbs_adr_i[3]
*342 wbs_adr_i[4]
*343 wbs_adr_i[5]
*344 wbs_adr_i[6]
*345 wbs_adr_i[7]
*346 wbs_adr_i[8]
*347 wbs_adr_i[9]
*348 wbs_cyc_i
*349 wbs_dat_i[0]
*350 wbs_dat_i[10]
*351 wbs_dat_i[11]
*352 wbs_dat_i[12]
*353 wbs_dat_i[13]
*354 wbs_dat_i[14]
*355 wbs_dat_i[15]
*356 wbs_dat_i[16]
*357 wbs_dat_i[17]
*358 wbs_dat_i[18]
*359 wbs_dat_i[19]
*360 wbs_dat_i[1]
*361 wbs_dat_i[20]
*362 wbs_dat_i[21]
*363 wbs_dat_i[22]
*364 wbs_dat_i[23]
*365 wbs_dat_i[24]
*366 wbs_dat_i[25]
*367 wbs_dat_i[26]
*368 wbs_dat_i[27]
*369 wbs_dat_i[28]
*370 wbs_dat_i[29]
*371 wbs_dat_i[2]
*372 wbs_dat_i[30]
*373 wbs_dat_i[31]
*374 wbs_dat_i[3]
*375 wbs_dat_i[4]
*376 wbs_dat_i[5]
*377 wbs_dat_i[6]
*378 wbs_dat_i[7]
*379 wbs_dat_i[8]
*380 wbs_dat_i[9]
*381 wbs_dat_o[0]
*382 wbs_dat_o[10]
*383 wbs_dat_o[11]
*384 wbs_dat_o[12]
*385 wbs_dat_o[13]
*386 wbs_dat_o[14]
*387 wbs_dat_o[15]
*388 wbs_dat_o[16]
*389 wbs_dat_o[17]
*390 wbs_dat_o[18]
*391 wbs_dat_o[19]
*392 wbs_dat_o[1]
*393 wbs_dat_o[20]
*394 wbs_dat_o[21]
*395 wbs_dat_o[22]
*396 wbs_dat_o[23]
*397 wbs_dat_o[24]
*398 wbs_dat_o[25]
*399 wbs_dat_o[26]
*400 wbs_dat_o[27]
*401 wbs_dat_o[28]
*402 wbs_dat_o[29]
*403 wbs_dat_o[2]
*404 wbs_dat_o[30]
*405 wbs_dat_o[31]
*406 wbs_dat_o[3]
*407 wbs_dat_o[4]
*408 wbs_dat_o[5]
*409 wbs_dat_o[6]
*410 wbs_dat_o[7]
*411 wbs_dat_o[8]
*412 wbs_dat_o[9]
*413 wbs_sel_i[0]
*414 wbs_sel_i[1]
*415 wbs_sel_i[2]
*416 wbs_sel_i[3]
*417 wbs_stb_i
*418 wbs_we_i
*419 _00_
*420 _01_
*421 _02_
*422 _03_
*423 _04_
*424 _05_
*425 _06_
*426 _07_
*427 _08_
*428 _09_
*429 _10_
*430 _11_
*431 _12_
*432 _13_
*433 _14_
*434 _15_
*435 _16_
*436 _17_
*437 cntr_example_1

*PORTS
io_in[0] I
io_in[10] I
io_in[11] I
io_in[12] I
io_in[13] I
io_in[14] I
io_in[15] I
io_in[16] I
io_in[17] I
io_in[18] I
io_in[19] I
io_in[1] I
io_in[20] I
io_in[21] I
io_in[22] I
io_in[23] I
io_in[24] I
io_in[25] I
io_in[26] I
io_in[27] I
io_in[28] I
io_in[29] I
io_in[2] I
io_in[30] I
io_in[31] I
io_in[32] I
io_in[33] I
io_in[34] I
io_in[35] I
io_in[36] I
io_in[37] I
io_in[3] I
io_in[4] I
io_in[5] I
io_in[6] I
io_in[7] I
io_in[8] I
io_in[9] I
io_oeb[0] O
io_oeb[10] O
io_oeb[11] O
io_oeb[12] O
io_oeb[13] O
io_oeb[14] O
io_oeb[15] O
io_oeb[16] O
io_oeb[17] O
io_oeb[18] O
io_oeb[19] O
io_oeb[1] O
io_oeb[20] O
io_oeb[21] O
io_oeb[22] O
io_oeb[23] O
io_oeb[24] O
io_oeb[25] O
io_oeb[26] O
io_oeb[27] O
io_oeb[28] O
io_oeb[29] O
io_oeb[2] O
io_oeb[30] O
io_oeb[31] O
io_oeb[32] O
io_oeb[33] O
io_oeb[34] O
io_oeb[35] O
io_oeb[36] O
io_oeb[37] O
io_oeb[3] O
io_oeb[4] O
io_oeb[5] O
io_oeb[6] O
io_oeb[7] O
io_oeb[8] O
io_oeb[9] O
io_out[0] O
io_out[10] O
io_out[11] O
io_out[12] O
io_out[13] O
io_out[14] O
io_out[15] O
io_out[16] O
io_out[17] O
io_out[18] O
io_out[19] O
io_out[1] O
io_out[20] O
io_out[21] O
io_out[22] O
io_out[23] O
io_out[24] O
io_out[25] O
io_out[26] O
io_out[27] O
io_out[28] O
io_out[29] O
io_out[2] O
io_out[30] O
io_out[31] O
io_out[32] O
io_out[33] O
io_out[34] O
io_out[35] O
io_out[36] O
io_out[37] O
io_out[3] O
io_out[4] O
io_out[5] O
io_out[6] O
io_out[7] O
io_out[8] O
io_out[9] O
la_data_in[0] I
la_data_in[10] I
la_data_in[11] I
la_data_in[12] I
la_data_in[13] I
la_data_in[14] I
la_data_in[15] I
la_data_in[16] I
la_data_in[17] I
la_data_in[18] I
la_data_in[19] I
la_data_in[1] I
la_data_in[20] I
la_data_in[21] I
la_data_in[22] I
la_data_in[23] I
la_data_in[24] I
la_data_in[25] I
la_data_in[26] I
la_data_in[27] I
la_data_in[28] I
la_data_in[29] I
la_data_in[2] I
la_data_in[30] I
la_data_in[31] I
la_data_in[32] I
la_data_in[33] I
la_data_in[34] I
la_data_in[35] I
la_data_in[36] I
la_data_in[37] I
la_data_in[38] I
la_data_in[39] I
la_data_in[3] I
la_data_in[40] I
la_data_in[41] I
la_data_in[42] I
la_data_in[43] I
la_data_in[44] I
la_data_in[45] I
la_data_in[46] I
la_data_in[47] I
la_data_in[48] I
la_data_in[49] I
la_data_in[4] I
la_data_in[50] I
la_data_in[51] I
la_data_in[52] I
la_data_in[53] I
la_data_in[54] I
la_data_in[55] I
la_data_in[56] I
la_data_in[57] I
la_data_in[58] I
la_data_in[59] I
la_data_in[5] I
la_data_in[60] I
la_data_in[61] I
la_data_in[62] I
la_data_in[63] I
la_data_in[6] I
la_data_in[7] I
la_data_in[8] I
la_data_in[9] I
la_data_out[0] O
la_data_out[10] O
la_data_out[11] O
la_data_out[12] O
la_data_out[13] O
la_data_out[14] O
la_data_out[15] O
la_data_out[16] O
la_data_out[17] O
la_data_out[18] O
la_data_out[19] O
la_data_out[1] O
la_data_out[20] O
la_data_out[21] O
la_data_out[22] O
la_data_out[23] O
la_data_out[24] O
la_data_out[25] O
la_data_out[26] O
la_data_out[27] O
la_data_out[28] O
la_data_out[29] O
la_data_out[2] O
la_data_out[30] O
la_data_out[31] O
la_data_out[32] O
la_data_out[33] O
la_data_out[34] O
la_data_out[35] O
la_data_out[36] O
la_data_out[37] O
la_data_out[38] O
la_data_out[39] O
la_data_out[3] O
la_data_out[40] O
la_data_out[41] O
la_data_out[42] O
la_data_out[43] O
la_data_out[44] O
la_data_out[45] O
la_data_out[46] O
la_data_out[47] O
la_data_out[48] O
la_data_out[49] O
la_data_out[4] O
la_data_out[50] O
la_data_out[51] O
la_data_out[52] O
la_data_out[53] O
la_data_out[54] O
la_data_out[55] O
la_data_out[56] O
la_data_out[57] O
la_data_out[58] O
la_data_out[59] O
la_data_out[5] O
la_data_out[60] O
la_data_out[61] O
la_data_out[62] O
la_data_out[63] O
la_data_out[6] O
la_data_out[7] O
la_data_out[8] O
la_data_out[9] O
la_oenb[0] I
la_oenb[10] I
la_oenb[11] I
la_oenb[12] I
la_oenb[13] I
la_oenb[14] I
la_oenb[15] I
la_oenb[16] I
la_oenb[17] I
la_oenb[18] I
la_oenb[19] I
la_oenb[1] I
la_oenb[20] I
la_oenb[21] I
la_oenb[22] I
la_oenb[23] I
la_oenb[24] I
la_oenb[25] I
la_oenb[26] I
la_oenb[27] I
la_oenb[28] I
la_oenb[29] I
la_oenb[2] I
la_oenb[30] I
la_oenb[31] I
la_oenb[32] I
la_oenb[33] I
la_oenb[34] I
la_oenb[35] I
la_oenb[36] I
la_oenb[37] I
la_oenb[38] I
la_oenb[39] I
la_oenb[3] I
la_oenb[40] I
la_oenb[41] I
la_oenb[42] I
la_oenb[43] I
la_oenb[44] I
la_oenb[45] I
la_oenb[46] I
la_oenb[47] I
la_oenb[48] I
la_oenb[49] I
la_oenb[4] I
la_oenb[50] I
la_oenb[51] I
la_oenb[52] I
la_oenb[53] I
la_oenb[54] I
la_oenb[55] I
la_oenb[56] I
la_oenb[57] I
la_oenb[58] I
la_oenb[59] I
la_oenb[5] I
la_oenb[60] I
la_oenb[61] I
la_oenb[62] I
la_oenb[63] I
la_oenb[6] I
la_oenb[7] I
la_oenb[8] I
la_oenb[9] I
user_clock2 I
user_irq[0] O
user_irq[1] O
user_irq[2] O
wb_clk_i I
wb_rst_i I
wbs_ack_o O
wbs_adr_i[0] I
wbs_adr_i[10] I
wbs_adr_i[11] I
wbs_adr_i[12] I
wbs_adr_i[13] I
wbs_adr_i[14] I
wbs_adr_i[15] I
wbs_adr_i[16] I
wbs_adr_i[17] I
wbs_adr_i[18] I
wbs_adr_i[19] I
wbs_adr_i[1] I
wbs_adr_i[20] I
wbs_adr_i[21] I
wbs_adr_i[22] I
wbs_adr_i[23] I
wbs_adr_i[24] I
wbs_adr_i[25] I
wbs_adr_i[26] I
wbs_adr_i[27] I
wbs_adr_i[28] I
wbs_adr_i[29] I
wbs_adr_i[2] I
wbs_adr_i[30] I
wbs_adr_i[31] I
wbs_adr_i[3] I
wbs_adr_i[4] I
wbs_adr_i[5] I
wbs_adr_i[6] I
wbs_adr_i[7] I
wbs_adr_i[8] I
wbs_adr_i[9] I
wbs_cyc_i I
wbs_dat_i[0] I
wbs_dat_i[10] I
wbs_dat_i[11] I
wbs_dat_i[12] I
wbs_dat_i[13] I
wbs_dat_i[14] I
wbs_dat_i[15] I
wbs_dat_i[16] I
wbs_dat_i[17] I
wbs_dat_i[18] I
wbs_dat_i[19] I
wbs_dat_i[1] I
wbs_dat_i[20] I
wbs_dat_i[21] I
wbs_dat_i[22] I
wbs_dat_i[23] I
wbs_dat_i[24] I
wbs_dat_i[25] I
wbs_dat_i[26] I
wbs_dat_i[27] I
wbs_dat_i[28] I
wbs_dat_i[29] I
wbs_dat_i[2] I
wbs_dat_i[30] I
wbs_dat_i[31] I
wbs_dat_i[3] I
wbs_dat_i[4] I
wbs_dat_i[5] I
wbs_dat_i[6] I
wbs_dat_i[7] I
wbs_dat_i[8] I
wbs_dat_i[9] I
wbs_dat_o[0] O
wbs_dat_o[10] O
wbs_dat_o[11] O
wbs_dat_o[12] O
wbs_dat_o[13] O
wbs_dat_o[14] O
wbs_dat_o[15] O
wbs_dat_o[16] O
wbs_dat_o[17] O
wbs_dat_o[18] O
wbs_dat_o[19] O
wbs_dat_o[1] O
wbs_dat_o[20] O
wbs_dat_o[21] O
wbs_dat_o[22] O
wbs_dat_o[23] O
wbs_dat_o[24] O
wbs_dat_o[25] O
wbs_dat_o[26] O
wbs_dat_o[27] O
wbs_dat_o[28] O
wbs_dat_o[29] O
wbs_dat_o[2] O
wbs_dat_o[30] O
wbs_dat_o[31] O
wbs_dat_o[3] O
wbs_dat_o[4] O
wbs_dat_o[5] O
wbs_dat_o[6] O
wbs_dat_o[7] O
wbs_dat_o[8] O
wbs_dat_o[9] O
wbs_sel_i[0] I
wbs_sel_i[1] I
wbs_sel_i[2] I
wbs_sel_i[3] I
wbs_stb_i I
wbs_we_i I

*D_NET *77 0.344898
*CONN
*P io_out[0] O
*I *437:io_out[0] O *D cntr_example
*CAP
1 io_out[0] 0.000637361
2 *437:io_out[0] 0.00010394
3 *77:11 0.0665502
4 *77:10 0.0659129
5 *77:8 0.0246548
6 *77:7 0.0247587
7 *77:8 *86:15 0
8 *77:8 *87:11 0.00665528
9 *77:8 *114:11 0.132981
10 *77:8 *114:17 0.00250751
11 *77:8 *114:19 0.0201365
*RES
1 *437:io_out[0] *77:7 5.445 
2 *77:7 *77:8 466.65 
3 *77:8 *77:10 4.5 
4 *77:10 *77:11 659.25 
5 *77:11 io_out[0] 11.025 
*END

*D_NET *78 0.298278
*CONN
*P io_out[10] O
*I *437:io_out[10] O *D cntr_example
*CAP
1 io_out[10] 0.000332275
2 *437:io_out[10] 0.000249127
3 *78:19 0.0251644
4 *78:18 0.0248321
5 *78:16 0.0464628
6 *78:15 0.0464628
7 *78:13 0.00570547
8 *78:12 0.0059546
9 *78:13 *80:13 0.0398508
10 *78:13 *108:13 0.103264
11 *78:19 *114:39 0
*RES
1 *437:io_out[10] *78:12 15.9065 
2 *78:12 *78:13 154.89 
3 *78:13 *78:15 4.5 
4 *78:15 *78:16 464.85 
5 *78:16 *78:18 4.5 
6 *78:18 *78:19 271.17 
7 *78:19 io_out[10] 3.015 
*END

*D_NET *79 0.21694
*CONN
*P io_out[11] O
*I *437:io_out[11] O *D cntr_example
*CAP
1 io_out[11] 0.000258912
2 *437:io_out[11] 0.000157982
3 *79:11 0.0699795
4 *79:10 0.0697206
5 *79:8 0.0383327
6 *79:7 0.0384907
*RES
1 *437:io_out[11] *79:7 6.165 
2 *79:7 *79:8 383.49 
3 *79:8 *79:10 4.5 
4 *79:10 *79:11 764.01 
5 *79:11 io_out[11] 2.475 
*END

*D_NET *80 0.215215
*CONN
*P io_out[12] O
*I *437:io_out[12] O *D cntr_example
*CAP
1 io_out[12] 0.000191629
2 *437:io_out[12] 0.000272813
3 *80:19 0.0247266
4 *80:18 0.0245349
5 *80:16 0.0594811
6 *80:15 0.0594811
7 *80:13 0.00320175
8 *80:12 0.00347456
9 *78:13 *80:13 0.0398508
*RES
1 *437:io_out[12] *80:12 16.0865 
2 *80:12 *80:13 60.39 
3 *80:13 *80:15 4.5 
4 *80:15 *80:16 594.63 
5 *80:16 *80:18 4.5 
6 *80:18 *80:19 268.47 
7 *80:19 io_out[12] 1.935 
*END

*D_NET *81 0.125548
*CONN
*P io_out[13] O
*I *437:io_out[13] O *D cntr_example
*CAP
1 io_out[13] 0.000123625
2 *437:io_out[13] 0.00817282
3 *81:11 0.0177263
4 *81:10 0.0176026
5 *81:8 0.0368748
6 *81:7 0.0368748
7 *81:5 0.00817282
*RES
1 *437:io_out[13] *81:5 88.245 
2 *81:5 *81:7 4.5 
3 *81:7 *81:8 368.55 
4 *81:8 *81:10 4.5 
5 *81:10 *81:11 192.87 
6 *81:11 io_out[13] 1.395 
*END

*D_NET *82 0.426934
*CONN
*P io_out[14] O
*I *437:io_out[14] O *D cntr_example
*CAP
1 io_out[14] 0.000637361
2 *437:io_out[14] 0.000986482
3 *82:17 0.0240055
4 *82:16 0.0233681
5 *82:14 0.0280459
6 *82:13 0.0290324
7 *82:14 *83:8 0.320858
*RES
1 *437:io_out[14] *82:13 13.275 
2 *82:13 *82:14 514.35 
3 *82:14 *82:16 4.5 
4 *82:16 *82:17 233.73 
5 *82:17 io_out[14] 11.025 
*END

*D_NET *83 0.45849
*CONN
*P io_out[15] O
*I *437:io_out[15] O *D cntr_example
*CAP
1 io_out[15] 0.000290594
2 *437:io_out[15] 0.000746684
3 *83:11 0.0268778
4 *83:10 0.0265872
5 *83:8 0.0411914
6 *83:7 0.0419381
7 *82:14 *83:8 0.320858
*RES
1 *437:io_out[15] *83:7 11.925 
2 *83:7 *83:8 658.71 
3 *83:8 *83:10 4.5 
4 *83:10 *83:11 265.77 
5 *83:11 io_out[15] 3.015 
*END

*D_NET *84 0.163566
*CONN
*P io_out[16] O
*I *437:io_out[16] O *D cntr_example
*CAP
1 io_out[16] 0.000104982
2 *437:io_out[16] 0.010975
3 *84:8 0.0708079
4 *84:7 0.0707029
5 *84:5 0.010975
*RES
1 *437:io_out[16] *84:5 119.385 
2 *84:5 *84:7 4.5 
3 *84:7 *84:8 707.13 
4 *84:8 io_out[16] 1.395 
*END

*D_NET *85 0.318063
*CONN
*P io_out[17] O
*I *437:io_out[17] O *D cntr_example
*CAP
1 io_out[17] 0.00182896
2 *437:io_out[17] 0.000499079
3 *85:16 0.0753622
4 *85:15 0.0735332
5 *85:13 0.014317
6 *85:12 0.0148161
7 *85:13 *113:13 0.134225
8 *85:16 *86:8 0.00324064
9 *85:16 *86:14 0.000241667
10 *85:16 *87:8 0
11 *85:16 *314:11 0
12 *85:16 *314:17 0
*RES
1 *437:io_out[17] *85:12 18.4265 
2 *85:12 *85:13 242.91 
3 *85:13 *85:15 4.5 
4 *85:15 *85:16 750.87 
5 *85:16 io_out[17] 28.215 
*END

*D_NET *86 0.206407
*CONN
*P io_out[18] O
*I *437:io_out[18] O *D cntr_example
*CAP
1 io_out[18] 0.00432456
2 *437:io_out[18] 9.26162e-05
3 *86:18 0.0271336
4 *86:17 0.022809
5 *86:15 0.00485315
6 *86:14 0.00499098
7 *86:8 0.00394814
8 *86:7 0.00390292
9 *86:8 *87:8 0.0648741
10 *86:14 *87:8 0.000654675
11 *86:15 *87:11 0.0653405
12 *86:15 *111:8 0
13 *77:8 *86:15 0
14 *85:16 *86:8 0.00324064
15 *85:16 *86:14 0.000241667
*RES
1 *437:io_out[18] *86:7 5.265 
2 *86:7 *86:8 95.13 
3 *86:8 *86:14 7.92 
4 *86:14 *86:15 94.95 
5 *86:15 *86:17 4.5 
6 *86:17 *86:18 228.06 
7 *86:18 io_out[18] 43.245 
*END

*D_NET *87 0.303852
*CONN
*P io_out[19] O
*I *437:io_out[19] O *D cntr_example
*CAP
1 io_out[19] 0.000164983
2 *437:io_out[19] 7.13353e-05
3 *87:14 0.0272855
4 *87:13 0.0271206
5 *87:11 0.0116786
6 *87:10 0.0116786
7 *87:8 0.0439542
8 *87:7 0.0440255
9 *87:7 *108:13 0
10 *87:7 *314:16 0
11 *87:8 *314:11 0.000347796
12 *87:11 *111:8 0
13 *87:11 *114:11 0
14 *77:8 *87:11 0.00665528
15 *85:16 *87:8 0
16 *86:8 *87:8 0.0648741
17 *86:14 *87:8 0.000654675
18 *86:15 *87:11 0.0653405
*RES
1 *437:io_out[19] *87:7 5.085 
2 *87:7 *87:8 483.57 
3 *87:8 *87:10 4.5 
4 *87:10 *87:11 202.59 
5 *87:11 *87:13 4.5 
6 *87:13 *87:14 271.17 
7 *87:14 io_out[19] 1.935 
*END

*D_NET *88 0.214622
*CONN
*P io_out[1] O
*I *437:io_out[1] O *D cntr_example
*CAP
1 io_out[1] 0.000258912
2 *437:io_out[1] 0.000418755
3 *88:14 0.025231
4 *88:13 0.0249721
5 *88:11 0.0599989
6 *88:10 0.0599989
7 *88:8 0.00279396
8 *88:7 0.00321271
9 *88:8 *112:8 0.0377371
*RES
1 *437:io_out[1] *88:7 8.325 
2 *88:7 *88:8 54.63 
3 *88:8 *88:10 4.5 
4 *88:10 *88:11 599.85 
5 *88:11 *88:13 4.5 
6 *88:13 *88:14 273.87 
7 *88:14 io_out[1] 2.475 
*END

*D_NET *99 0.123157
*CONN
*P io_out[2] O
*I *437:io_out[2] O *D cntr_example
*CAP
1 io_out[2] 0.000191629
2 *437:io_out[2] 7.18181e-05
3 *99:11 0.0565516
4 *99:10 0.05636
5 *99:8 0.00495526
6 *99:7 0.00502708
*RES
1 *437:io_out[2] *99:7 9.74739 
2 *99:7 *99:8 49.59 
3 *99:8 *99:10 4.5 
4 *99:10 *99:11 618.03 
5 *99:11 io_out[2] 1.935 
*END

*D_NET *108 0.199401
*CONN
*P io_out[3] O
*I *437:io_out[3] O *D cntr_example
*CAP
1 io_out[3] 0.000123625
2 *437:io_out[3] 0.000225441
3 *108:19 0.0253866
4 *108:18 0.0269252
5 *108:13 0.0224564
6 *108:12 0.0210196
7 *108:18 *314:17 0
8 *78:13 *108:13 0.103264
9 *87:7 *108:13 0
*RES
1 *437:io_out[3] *108:12 15.7265 
2 *108:12 *108:13 294.21 
3 *108:13 *108:18 25.47 
4 *108:18 *108:19 276.57 
5 *108:19 io_out[3] 1.395 
*END

*D_NET *109 0.122329
*CONN
*P io_out[4] O
*I *437:io_out[4] O *D cntr_example
*CAP
1 io_out[4] 0.00395544
2 *437:io_out[4] 0.00146798
3 *109:11 0.0243108
4 *109:10 0.0203554
5 *109:8 0.0353858
6 *109:7 0.0368538
*RES
1 *437:io_out[4] *109:7 19.845 
2 *109:7 *109:8 354.15 
3 *109:8 *109:10 4.5 
4 *109:10 *109:11 222.84 
5 *109:11 io_out[4] 43.245 
*END

*D_NET *110 0.119995
*CONN
*P io_out[5] O
*I *437:io_out[5] O *D cntr_example
*CAP
1 io_out[5] 0.000332275
2 *437:io_out[5] 0.000445443
3 *110:17 0.0221457
4 *110:16 0.0249218
5 *110:13 0.00662873
6 *110:8 0.0342979
7 *110:7 0.031223
8 *110:7 *114:11 0
9 *110:7 *114:17 0
10 *110:8 *314:17 0
*RES
1 *437:io_out[5] *110:7 13.41 
2 *110:7 *110:8 307.89 
3 *110:8 *110:13 46.89 
4 *110:13 *110:16 35.55 
5 *110:16 *110:17 238.77 
6 *110:17 io_out[5] 3.015 
*END

*D_NET *111 0.357173
*CONN
*P io_out[6] O
*I *437:io_out[6] O *D cntr_example
*CAP
1 io_out[6] 0.000258912
2 *437:io_out[6] 0.000353893
3 *111:14 0.0131888
4 *111:13 0.0129299
5 *111:11 0.0278183
6 *111:10 0.0278183
7 *111:8 0.0310707
8 *111:7 0.0314245
9 *111:8 *112:8 0.21231
10 *86:15 *111:8 0
11 *87:11 *111:8 0
*RES
1 *437:io_out[6] *111:7 7.965 
2 *111:7 *111:8 476.37 
3 *111:8 *111:10 4.5 
4 *111:10 *111:11 278.19 
5 *111:11 *111:13 4.5 
6 *111:13 *111:14 141.57 
7 *111:14 io_out[6] 2.475 
*END

*D_NET *112 0.368656
*CONN
*P io_out[7] O
*I *437:io_out[7] O *D cntr_example
*CAP
1 io_out[7] 0.000191629
2 *437:io_out[7] 0.000377579
3 *112:14 0.0242488
4 *112:13 0.0240572
5 *112:11 0.0213691
6 *112:10 0.0213691
7 *112:8 0.0133093
8 *112:7 0.0136869
9 *88:8 *112:8 0.0377371
10 *111:8 *112:8 0.21231
*RES
1 *437:io_out[7] *112:7 8.145 
2 *112:7 *112:8 307.35 
3 *112:8 *112:10 4.5 
4 *112:10 *112:11 213.57 
5 *112:11 *112:13 4.5 
6 *112:13 *112:14 263.07 
7 *112:14 io_out[7] 1.935 
*END

*D_NET *113 0.274364
*CONN
*P io_out[8] O
*I *437:io_out[8] O *D cntr_example
*CAP
1 io_out[8] 0.000123625
2 *437:io_out[8] 0.000522765
3 *113:19 0.0236654
4 *113:18 0.0235418
5 *113:16 0.0340701
6 *113:15 0.0340701
7 *113:13 0.0118115
8 *113:12 0.0123343
9 *85:13 *113:13 0.134225
*RES
1 *437:io_out[8] *113:12 18.6065 
2 *113:12 *113:13 215.91 
3 *113:13 *113:15 4.5 
4 *113:15 *113:16 340.65 
5 *113:16 *113:18 4.5 
6 *113:18 *113:19 257.67 
7 *113:19 io_out[8] 1.395 
*END

*D_NET *114 0.341292
*CONN
*P io_out[9] O
*I *437:io_out[9] O *D cntr_example
*CAP
1 io_out[9] 0.00160712
2 *437:io_out[9] 0.000411097
3 *114:60 0.005019
4 *114:57 0.0055731
5 *114:48 0.00455769
6 *114:39 0.00487001
7 *114:30 0.00511701
8 *114:19 0.0141649
9 *114:17 0.0121786
10 *114:11 0.0372228
11 *114:10 0.0365656
12 *114:8 0.0289844
13 *114:7 0.0293955
14 *77:8 *114:11 0.132981
15 *77:8 *114:17 0.00250751
16 *77:8 *114:19 0.0201365
17 *78:19 *114:39 0
18 *87:11 *114:11 0
19 *110:7 *114:11 0
20 *110:7 *114:17 0
*RES
1 *437:io_out[9] *114:7 8.865 
2 *114:7 *114:8 290.07 
3 *114:8 *114:10 4.5 
4 *114:10 *114:11 486.09 
5 *114:11 *114:17 11.7 
6 *114:17 *114:19 199.98 
7 *114:19 *114:30 44.73 
8 *114:30 *114:39 39.51 
9 *114:39 *114:48 37.89 
10 *114:48 *114:57 35.91 
11 *114:57 *114:60 38.61 
12 *114:60 io_out[9] 17.325 
*END

*D_NET *313 0.162235
*CONN
*P wb_clk_i I
*I *437:wb_clk_i I *D cntr_example
*CAP
1 wb_clk_i 0.000291157
2 *437:wb_clk_i 3.5832e-05
3 *313:16 0.0166744
4 *313:15 0.0166385
5 *313:13 0.0641518
6 *313:11 0.064443
*RES
1 wb_clk_i *313:11 3.015 
2 *313:11 *313:13 642.15 
3 *313:13 *313:15 4.5 
4 *313:15 *313:16 182.43 
5 *313:16 *437:wb_clk_i 0.405 
*END

*D_NET *314 0.20175
*CONN
*P wb_rst_i I
*I *437:wb_rst_i I *D cntr_example
*CAP
1 wb_rst_i 0.000633074
2 *437:wb_rst_i 0.000329793
3 *314:17 0.0193993
4 *314:16 0.0193981
5 *314:11 0.0206732
6 *314:10 0.0203447
7 *314:8 0.0599956
8 *314:7 0.0606287
9 *85:16 *314:11 0
10 *85:16 *314:17 0
11 *87:7 *314:16 0
12 *87:8 *314:11 0.000347796
13 *108:18 *314:17 0
14 *110:8 *314:17 0
*RES
1 wb_rst_i *314:7 10.665 
2 *314:7 *314:8 658.17 
3 *314:8 *314:10 4.5 
4 *314:10 *314:11 203.85 
5 *314:11 *314:16 12.15 
6 *314:16 *314:17 190.71 
7 *314:17 *437:wb_rst_i 7.785 
*END
